<?xml version="1.0" encoding="UTF-8"?>

<!-- generated on 2026-02-11 22:44:05.619351 by Eclipse SUMO generateStationEdges.py v1_26_0+0161-3cd58603596
<configuration>
    <net-file value="input_net.net.xml"/>
    <stop-file value="input_additional.add.xml"/>
    <output-prefix value="out"/>
    <join-stations value="True"/>
</configuration>
-->

<edges xmlns:xsi="http://www.w3.org/2001/XMLSchema-instance" xsi:noNamespaceSchemaLocation="http://sumo.dlr.de/xsd/edges_file.xsd">
    <edge id="ts_0_access" from="ts_0_access_from" to="ts_0_access_to" allow="pedestrian" width="8.0"/>
    <edge id="ts_1_access" from="ts_1_access_from" to="ts_1_access_to" allow="pedestrian" width="8.0"/>
    <edge id="ts_2_access" from="ts_2_access_from" to="ts_2_access_to" allow="pedestrian" width="8.0"/>
    <edge id="ts_3_access" from="ts_3_access_from" to="ts_3_access_to" allow="pedestrian" width="8.0"/>
</edges>
