<?xml version="1.0" encoding="UTF-8"?>

<!-- generated on 2026-02-11 22:44:05.624039 by Eclipse SUMO generateStationEdges.py v1_26_0+0161-3cd58603596
<configuration>
    <net-file value="input_net.net.xml"/>
    <stop-file value="input_additional.add.xml"/>
    <output-prefix value="out"/>
    <join-stations value="True"/>
</configuration>
-->

<nodes xmlns:xsi="http://www.w3.org/2001/XMLSchema-instance" xsi:noNamespaceSchemaLocation="http://sumo.dlr.de/xsd/nodes_file.xsd">
    <node id="ts_0_access_from" x="45.0" y="112.5"/>
    <node id="ts_0_access_to" x="55.0" y="112.5"/>
    <node id="ts_1_access_from" x="45.0" y="100.0"/>
    <node id="ts_1_access_to" x="55.0" y="100.0"/>
    <node id="ts_2_access_from" x="245.0" y="100.0"/>
    <node id="ts_2_access_to" x="255.0" y="100.0"/>
    <node id="ts_3_access_from" x="245.0" y="112.5"/>
    <node id="ts_3_access_to" x="255.0" y="112.5"/>
</nodes>
