<?xml version="1.0" encoding="UTF-8"?>
<routes xmlns:xsi="http://www.w3.org/2001/XMLSchema-instance" xsi:noNamespaceSchemaLocation="http://sumo.dlr.de/xsd/routes_file.xsd">
    <vType id="taxi" vClass="taxi">
        <param key="has.taxi.device" value="true"/>
    </vType>

    <trip id="v0" type="taxi" depart="0.00" from="C0C1" to="C1C2" departPos="-10" departSpeed="max"/>
    <trip id="v1" type="taxi" depart="0.00" from="C2C1" to="C1B1" departPos="-60" departSpeed="max"/>

    <person id="p0" depart="0.00" departPos="50">
        <ride from="C1B1" to="B1A1" lines="taxi"/>
    </person>

</routes>
