<?xml version="1.0" encoding="UTF-8"?>

<!-- generated on 2026-02-16T11:54:41.355017+01:00 by Eclipse SUMO netedit v1_26_0+0228-f5ee370aac1
-->

<additional xmlns:xsi="http://www.w3.org/2001/XMLSchema-instance" xsi:noNamespaceSchemaLocation="http://sumo.dlr.de/xsd/additional_file.xsd">
    <!-- StoppingPlaces -->
    <busStop id="bs_0" lane="E0_0" startPos="60.00" endPos="80.00"/>
</additional>
