<?xml version="1.0" encoding="UTF-8"?>

<!-- generated on 2026-02-16T11:54:34.840590+01:00 by Eclipse SUMO netedit v1_26_0+0228-f5ee370aac1
-->

<routes xmlns:xsi="http://www.w3.org/2001/XMLSchema-instance" xsi:noNamespaceSchemaLocation="http://sumo.dlr.de/xsd/routes_file.xsd">
    <!-- Vehicles, persons and containers (sorted by depart) -->
    <flow id="t_0" begin="2.00" number="3" period="2" from="E0" to="E1"/>
    <trip id="t_1" depart="10.00" from="E0" to="E1">
        <stop busStop="bs_0" duration="30"/>
    </trip>
</routes>
