<?xml version="1.0" encoding="UTF-8"?>
<routes xmlns:xsi="http://www.w3.org/2001/XMLSchema-instance" xsi:noNamespaceSchemaLocation="http://sumo.dlr.de/xsd/routes_file.xsd">
	
	<vType id="DEFAULT_VEHTYPE" sigma="0">
    </vType>

    <!-- vehicles to occupy parkingAreas -->
    <flow id="v" begin="0" end="1" number="2" from="E0" to="E4">
		<stop parkingArea="pa_0" duration="200"/>
    </flow>
	
</routes>
