<?xml version="1.0" encoding="UTF-8"?>

<!-- generated on 2026-02-11T17:25:58.328005+01:00 by Eclipse SUMO netedit v1_26_0+0159-f97691dfba2
<neteditConfiguration xmlns:xsi="http://www.w3.org/2001/XMLSchema-instance" xsi:noNamespaceSchemaLocation="http://sumo.dlr.de/xsd/neteditConfiguration.xsd">

    <input>
        <sumo-net-file value="net.net.xml"/>
    </input>

    <output>
        <output-file value="net.net.xml"/>
    </output>

    <processing>
        <geometry.min-radius.fix.railways value="false"/>
        <geometry.avoid-overlap value="false"/>
        <geometry.max-grade.fix value="false"/>
        <offset.disable-normalization value="true"/>
        <lefthand value="0"/>
    </processing>

    <junctions>
        <no-turnarounds value="true"/>
        <junctions.corner-detail value="5"/>
        <junctions.limit-turn-speed value="5.50"/>
        <rectangular-lane-cut value="0"/>
    </junctions>

    <pedestrian>
        <walkingareas value="0"/>
    </pedestrian>

</neteditConfiguration>
-->

<net version="1.20" junctionCornerDetail="5" limitTurnSpeed="5.50" avoidOverlap="0" xmlns:xsi="http://www.w3.org/2001/XMLSchema-instance" xsi:noNamespaceSchemaLocation="http://sumo.dlr.de/xsd/net_file.xsd">

    <location netOffset="0.00,0.00" convBoundary="-100.00,0.00,100.00,0.00" origBoundary="-10000000000.00,-10000000000.00,10000000000.00,10000000000.00" projParameter="!"/>

    <edge id=":J1_0" function="internal">
        <lane id=":J1_0_0" index="0" speed="27.78" length="8.40" shape="-4.00,-4.80 -1.54,-4.30 -0.00,-3.20 1.54,-2.10 4.00,-1.60"/>
        <lane id=":J1_0_1" index="1" speed="27.78" length="8.40" shape="-4.00,-1.60 4.00,-1.60"/>
    </edge>

    <edge id="E0" from="J0" to="J1" priority="-1">
        <lane id="E0_0" index="0" speed="27.78" length="96.00" shape="-100.00,-4.80 -4.00,-4.80"/>
        <lane id="E0_1" index="1" speed="27.78" length="96.00" shape="-100.00,-1.60 -4.00,-1.60"/>
    </edge>
    <edge id="E1" from="J1" to="J2" priority="-1">
        <lane id="E1_0" index="0" speed="27.78" length="96.00" shape="4.00,-1.60 100.00,-1.60"/>
    </edge>

    <junction id="J0" type="dead_end" x="-100.00" y="0.00" incLanes="" intLanes="" shape="-100.00,0.00 -100.00,-6.40"/>
    <junction id="J1" type="zipper" x="0.00" y="0.00" incLanes="E0_0 E0_1" intLanes=":J1_0_0 :J1_0_1" shape="4.00,0.00 4.00,-3.20 0.97,-4.03 -0.97,-5.57 -2.21,-6.16 -4.00,-6.40 -4.00,0.00">
        <request index="0" response="10" foes="10" cont="0"/>
        <request index="1" response="01" foes="01" cont="0"/>
    </junction>
    <junction id="J2" type="dead_end" x="100.00" y="0.00" incLanes="E1_0" intLanes="" shape="100.00,-3.20 100.00,0.00"/>

    <connection from="E0" to="E1" fromLane="0" toLane="0" via=":J1_0_0" dir="s" state="Z"/>
    <connection from="E0" to="E1" fromLane="1" toLane="0" via=":J1_0_1" dir="s" state="Z"/>

    <connection from=":J1_0" to="E1" fromLane="0" toLane="0" dir="s" state="M"/>
    <connection from=":J1_0" to="E1" fromLane="1" toLane="0" dir="s" state="M"/>

</net>
