<?xml version="1.0" encoding="UTF-8"?>

<!-- generated on 2026-02-12T11:03:29.560515+01:00 by Eclipse SUMO netedit v1_26_0+0166-b611732c50d
<neteditConfiguration xmlns:xsi="http://www.w3.org/2001/XMLSchema-instance" xsi:noNamespaceSchemaLocation="http://sumo.dlr.de/xsd/neteditConfiguration.xsd">

    <input>
        <sumo-net-file value="net.net.xml"/>
    </input>

    <output>
        <output-file value="net.net.xml"/>
        <output.street-names value="true"/>
    </output>

    <processing>
        <geometry.min-radius.fix.railways value="false"/>
        <geometry.avoid-overlap value="false"/>
        <geometry.max-grade.fix value="false"/>
        <offset.disable-normalization value="true"/>
        <lefthand value="0"/>
    </processing>

    <junctions>
        <no-internal-links value="true"/>
        <no-turnarounds value="true"/>
        <junctions.corner-detail value="0"/>
        <junctions.limit-turn-speed value="-1.00"/>
        <rectangular-lane-cut value="0"/>
    </junctions>

    <pedestrian>
        <walkingareas value="0"/>
    </pedestrian>

</neteditConfiguration>
-->

<net version="1.20" avoidOverlap="0" xmlns:xsi="http://www.w3.org/2001/XMLSchema-instance" xsi:noNamespaceSchemaLocation="http://sumo.dlr.de/xsd/net_file.xsd">

    <location netOffset="-362563.54,-4832311.19" convBoundary="600.00,100.00,800.00,100.00" origBoundary="13.296064,43.631354,13.321826,43.642858" projParameter="+proj=utm +zone=33 +ellps=WGS84 +datum=WGS84 +units=m +no_defs"/>

    <edge id="a" from="12" to="14" name="Via Montespirello" priority="60" type="strada.doppiosenso.50">
        <lane id="a_0" index="0" speed="13.89" length="200.09" shape="600.00,98.40,57.00 800.00,98.40,51.00"/>
    </edge>

    <junction id="12" type="dead_end" x="600.00" y="100.00" z="57.00" incLanes="" intLanes="" shape="600.00,100.00,57.00 600.00,96.80,57.00"/>
    <junction id="14" type="dead_end" x="800.00" y="100.00" z="51.00" incLanes="a_0" intLanes="" shape="800.00,96.80,51.00 800.00,100.00,51.00"/>

</net>
