<?xml version="1.0" encoding="UTF-8"?>

<!-- generated on 2026-02-12T11:39:34.841998+01:00 by Eclipse SUMO GUI v1_26_0+0169-49e851337e7
This data file and the accompanying materials
are made available under the terms of the Eclipse Public License v2.0
which accompanies this distribution, and is available at
http://www.eclipse.org/legal/epl-v20.html
This file may also be made available under the following Secondary
Licenses when the conditions for such availability set forth in the Eclipse
Public License 2.0 are satisfied: GNU General Public License, version 2
or later which is available at
https://www.gnu.org/licenses/old-licenses/gpl-2.0-standalone.html
SPDX-License-Identifier: EPL-2.0 OR GPL-2.0-or-later
<sumoConfiguration xmlns:xsi="http://www.w3.org/2001/XMLSchema-instance" xsi:noNamespaceSchemaLocation="http://sumo.dlr.de/xsd/sumoConfiguration.xsd">

    <input>
        <net-file value="net.net.xml"/>
        <route-files value="input_routes.rou.xml"/>
        <additional-files value="input_additional.add.xml"/>
    </input>

    <output>
        <write-license value="true"/>
        <tripinfo-output value="tripinfos.xml"/>
        <stop-output value="stopinfos.xml"/>
    </output>

    <processing>
        <default.speeddev value="0"/>
    </processing>

    <report>
        <xml-validation value="never"/>
        <duration-log.disable value="true"/>
        <no-step-log value="true"/>
    </report>

</sumoConfiguration>
-->

<stops xmlns:xsi="http://www.w3.org/2001/XMLSchema-instance" xsi:noNamespaceSchemaLocation="http://sumo.dlr.de/xsd/stopinfo_file.xsd">
    <stopinfo id="flow1.0" type="DEFAULT_VEHTYPE" lane="a_0" pos="100.00" parking="1" started="12.00" ended="212.00" parkingArea="ParkAreaA" initialPersons="0" loadedPersons="0" unloadedPersons="0" initialContainers="0" loadedContainers="0" unloadedContainers="0" blockedDuration="0.00"/>
    <stopinfo id="flow1.1" type="DEFAULT_VEHTYPE" lane="a_0" pos="90.00" parking="1" started="16.00" ended="216.00" parkingArea="ParkAreaA" initialPersons="0" loadedPersons="0" unloadedPersons="0" initialContainers="0" loadedContainers="0" unloadedContainers="0" blockedDuration="0.00"/>
    <stopinfo id="flow1.2" type="DEFAULT_VEHTYPE" lane="a_0" pos="80.00" parking="1" started="19.00" ended="219.00" parkingArea="ParkAreaA" initialPersons="0" loadedPersons="0" unloadedPersons="0" initialContainers="0" loadedContainers="0" unloadedContainers="0" blockedDuration="0.00"/>
    <stopinfo id="flow1.3" type="DEFAULT_VEHTYPE" lane="a_0" pos="70.00" parking="1" started="23.00" ended="223.00" parkingArea="ParkAreaA" initialPersons="0" loadedPersons="0" unloadedPersons="0" initialContainers="0" loadedContainers="0" unloadedContainers="0" blockedDuration="0.00"/>
    <stopinfo id="flow1.4" type="DEFAULT_VEHTYPE" lane="a_0" pos="60.00" parking="1" started="27.00" ended="227.00" parkingArea="ParkAreaA" initialPersons="0" loadedPersons="0" unloadedPersons="0" initialContainers="0" loadedContainers="0" unloadedContainers="0" blockedDuration="0.00"/>
    <stopinfo id="flow1.5" type="DEFAULT_VEHTYPE" lane="a_0" pos="100.00" parking="1" started="235.00" ended="435.00" parkingArea="ParkAreaA" initialPersons="0" loadedPersons="0" unloadedPersons="0" initialContainers="0" loadedContainers="0" unloadedContainers="0" blockedDuration="205.00"/>
    <stopinfo id="flow1.6" type="DEFAULT_VEHTYPE" lane="a_0" pos="90.00" parking="1" started="236.00" ended="436.00" parkingArea="ParkAreaA" initialPersons="0" loadedPersons="0" unloadedPersons="0" initialContainers="0" loadedContainers="0" unloadedContainers="0" blockedDuration="0.00"/>
    <stopinfo id="flow1.7" type="DEFAULT_VEHTYPE" lane="a_0" pos="80.00" parking="1" started="237.00" ended="437.00" parkingArea="ParkAreaA" initialPersons="0" loadedPersons="0" unloadedPersons="0" initialContainers="0" loadedContainers="0" unloadedContainers="0" blockedDuration="0.00"/>
</stops>
