<?xml version="1.0" encoding="UTF-8"?>

<!-- generated on 2026-02-12T11:05:08.675177+01:00 by Eclipse SUMO sumo v1_26_0+0166-b611732c50d
This data file and the accompanying materials
are made available under the terms of the Eclipse Public License v2.0
which accompanies this distribution, and is available at
http://www.eclipse.org/legal/epl-v20.html
This file may also be made available under the following Secondary
Licenses when the conditions for such availability set forth in the Eclipse
Public License 2.0 are satisfied: GNU General Public License, version 2
or later which is available at
https://www.gnu.org/licenses/old-licenses/gpl-2.0-standalone.html
SPDX-License-Identifier: EPL-2.0 OR GPL-2.0-or-later
<sumoConfiguration xmlns:xsi="http://www.w3.org/2001/XMLSchema-instance" xsi:noNamespaceSchemaLocation="http://sumo.dlr.de/xsd/sumoConfiguration.xsd">

    <input>
        <net-file value="net.net.xml"/>
        <route-files value="input_routes.rou.xml"/>
        <additional-files value="input_additional.add.xml"/>
    </input>

    <output>
        <write-license value="true"/>
        <tripinfo-output value="tripinfos.xml"/>
        <stop-output value="stopinfos.xml"/>
    </output>

    <processing>
        <default.speeddev value="0"/>
    </processing>

    <report>
        <xml-validation value="never"/>
        <duration-log.disable value="true"/>
        <no-step-log value="true"/>
    </report>

    <mesoscopic>
        <mesosim value="true"/>
    </mesoscopic>

</sumoConfiguration>
-->

<stops xmlns:xsi="http://www.w3.org/2001/XMLSchema-instance" xsi:noNamespaceSchemaLocation="http://sumo.dlr.de/xsd/stopinfo_file.xsd">
    <stopinfo id="flow1.0" type="DEFAULT_VEHTYPE" edge="a" pos="0.00" parking="1" started="0.00" ended="208.00" parkingArea="ParkAreaA" initialPersons="0" loadedPersons="0" unloadedPersons="0" initialContainers="0" loadedContainers="0" unloadedContainers="0" blockedDuration="0.00"/>
    <stopinfo id="flow1.1" type="DEFAULT_VEHTYPE" edge="a" pos="0.00" parking="1" started="5.00" ended="213.00" parkingArea="ParkAreaA" initialPersons="0" loadedPersons="0" unloadedPersons="0" initialContainers="0" loadedContainers="0" unloadedContainers="0" blockedDuration="0.00"/>
    <stopinfo id="flow1.2" type="DEFAULT_VEHTYPE" edge="a" pos="0.00" parking="1" started="10.00" ended="218.00" parkingArea="ParkAreaA" initialPersons="0" loadedPersons="0" unloadedPersons="0" initialContainers="0" loadedContainers="0" unloadedContainers="0" blockedDuration="0.00"/>
    <stopinfo id="flow1.3" type="DEFAULT_VEHTYPE" edge="a" pos="0.00" parking="1" started="15.00" ended="223.00" parkingArea="ParkAreaA" initialPersons="0" loadedPersons="0" unloadedPersons="0" initialContainers="0" loadedContainers="0" unloadedContainers="0" blockedDuration="0.00"/>
    <stopinfo id="flow1.4" type="DEFAULT_VEHTYPE" edge="a" pos="0.00" parking="1" started="20.00" ended="228.00" parkingArea="ParkAreaA" initialPersons="0" loadedPersons="0" unloadedPersons="0" initialContainers="0" loadedContainers="0" unloadedContainers="0" blockedDuration="0.00"/>
    <stopinfo id="flow1.5" type="DEFAULT_VEHTYPE" edge="a" pos="0.00" parking="1" started="208.00" ended="416.00" parkingArea="ParkAreaA" initialPersons="0" loadedPersons="0" unloadedPersons="0" initialContainers="0" loadedContainers="0" unloadedContainers="0" blockedDuration="0.00"/>
    <stopinfo id="flow1.6" type="DEFAULT_VEHTYPE" edge="a" pos="0.00" parking="1" started="213.00" ended="421.00" parkingArea="ParkAreaA" initialPersons="0" loadedPersons="0" unloadedPersons="0" initialContainers="0" loadedContainers="0" unloadedContainers="0" blockedDuration="0.00"/>
</stops>
