<?xml version="1.0" encoding="UTF-8"?>

<!-- generated on 2026-02-11T15:57:46.862671+01:00 by Eclipse SUMO netedit v1_26_0+0158-a56474384f0
<neteditConfiguration xmlns:xsi="http://www.w3.org/2001/XMLSchema-instance" xsi:noNamespaceSchemaLocation="http://sumo.dlr.de/xsd/neteditConfiguration.xsd">

    <input>
        <sumo-net-file value="/localdata1/debug/17624/net.net.xml"/>
    </input>

    <output>
        <output-file value="/localdata1/debug/17624/net.net.xml"/>
    </output>

    <processing>
        <geometry.min-radius.fix.railways value="false"/>
        <geometry.avoid-overlap value="false"/>
        <geometry.max-grade.fix value="false"/>
        <offset.disable-normalization value="true"/>
        <lefthand value="0"/>
    </processing>

    <junctions>
        <no-turnarounds value="true"/>
        <junctions.corner-detail value="5"/>
        <junctions.limit-turn-speed value="5.50"/>
        <rectangular-lane-cut value="0"/>
    </junctions>

    <pedestrian>
        <walkingareas value="0"/>
    </pedestrian>

</neteditConfiguration>
-->

<net version="1.20" junctionCornerDetail="5" limitTurnSpeed="5.50" avoidOverlap="0" xmlns:xsi="http://www.w3.org/2001/XMLSchema-instance" xsi:noNamespaceSchemaLocation="http://sumo.dlr.de/xsd/net_file.xsd">

    <location netOffset="0.00,0.00" convBoundary="-100.00,-100.00,100.00,0.00" origBoundary="-10000000000.00,-10000000000.00,10000000000.00,10000000000.00" projParameter="!"/>

    <edge id=":J1_0" function="internal">
        <lane id=":J1_0_0" index="0" speed="9.11" length="7.49" shape="-3.24,-5.50 -1.39,-3.80 0.27,-2.58 1.72,-1.84 2.98,-1.60"/>
    </edge>
    <edge id=":J1_1" function="internal">
        <lane id=":J1_1_0" index="0" speed="27.78" length="7.84" shape="-4.86,-1.60 2.98,-1.60"/>
    </edge>

    <edge id="E0" from="J0" to="J1" priority="-1">
        <lane id="E0_0" index="0" speed="27.78" length="95.14" shape="-100.00,-1.60 -4.86,-1.60"/>
    </edge>
    <edge id="E1" from="J1" to="J2" priority="-1">
        <lane id="E1_0" index="0" speed="27.78" length="97.02" shape="2.98,-1.60 100.00,-1.60"/>
    </edge>
    <edge id="E2" from="J3" to="J1" priority="-1">
        <lane id="E2_0" index="0" speed="27.78" length="135.24" shape="-98.87,-101.13 -3.24,-5.50"/>
    </edge>

    <junction id="J0" type="dead_end" x="-100.00" y="0.00" incLanes="" intLanes="" shape="-100.00,0.00 -100.00,-3.20"/>
    <junction id="J1" type="zipper" x="0.00" y="0.00" incLanes="E2_0 E0_0" intLanes=":J1_0_0 :J1_1_0" shape="2.98,0.00 2.98,-3.20 1.68,-3.58 0.88,-4.06 -0.02,-4.73 -1.01,-5.58 -2.11,-6.63 -4.37,-4.37 -3.90,-3.72 -3.91,-3.49 -4.07,-3.33 -4.38,-3.23 -4.86,-3.20 -4.86,0.00">
        <request index="0" response="10" foes="10" cont="0"/>
        <request index="1" response="01" foes="01" cont="0"/>
    </junction>
    <junction id="J2" type="dead_end" x="100.00" y="0.00" incLanes="E1_0" intLanes="" shape="100.00,-3.20 100.00,0.00"/>
    <junction id="J3" type="dead_end" x="-100.00" y="-100.00" incLanes="" intLanes="" shape="-100.00,-100.00 -97.74,-102.26"/>

    <connection from="E0" to="E1" fromLane="0" toLane="0" via=":J1_1_0" dir="s" state="Z"/>
    <connection from="E2" to="E1" fromLane="0" toLane="0" via=":J1_0_0" dir="r" state="Z"/>

    <connection from=":J1_0" to="E1" fromLane="0" toLane="0" dir="r" state="M"/>
    <connection from=":J1_1" to="E1" fromLane="0" toLane="0" dir="s" state="M"/>

</net>
