<?xml version="1.0" encoding="UTF-8"?>

<!-- generated on 2026-02-11T15:58:54.726550+01:00 by Eclipse SUMO netedit v1_26_0+0158-a56474384f0
-->

<routes xmlns:xsi="http://www.w3.org/2001/XMLSchema-instance" xsi:noNamespaceSchemaLocation="http://sumo.dlr.de/xsd/routes_file.xsd">
    <!-- Vehicles, persons and containers (sorted by depart) -->
    <flow id="f_0" begin="0.00" end="3600.00" period="exp(0.14999999999999999445)" departSpeed="avg">
        <route edges="E0 E1"/>
    </flow>
    <flow id="f_1" begin="0.00" end="3600.00" period="exp(0.14999999999999999445)" departSpeed="avg">
        <route edges="E2 E1"/>
    </flow>
</routes>
