<?xml version="1.0" encoding="UTF-8"?>

<additional xmlns:xsi="http://www.w3.org/2001/XMLSchema-instance" xsi:noNamespaceSchemaLocation="http://sumo.dlr.de/xsd/additional_file.xsd">
	
    <rerouter id="rr_0" pos="175.00,75.00" edges="E1">
        <interval begin="0.00" end="3600.00">
            <parkingAreaReroute id="pa_1" visible="1"/>
            <parkingAreaReroute id="pa_0" visible="1"/>
        </interval>
    </rerouter>
	
</additional>
