<?xml version="1.0" encoding="UTF-8"?>

<!-- generated on 2026-02-12T12:28:41.506646+01:00 by Eclipse SUMO netedit v1_26_0+0174-82690a97c7d
<neteditConfiguration xmlns:xsi="http://www.w3.org/2001/XMLSchema-instance" xsi:noNamespaceSchemaLocation="http://sumo.dlr.de/xsd/neteditConfiguration.xsd">

    <input>
        <sumo-net-file value="net.net.xml"/>
    </input>

    <output>
        <output-file value="net.net.xml"/>
    </output>

    <processing>
        <geometry.min-radius.fix.railways value="false"/>
        <geometry.avoid-overlap value="false"/>
        <geometry.max-grade.fix value="false"/>
        <offset.disable-normalization value="true"/>
        <lefthand value="0"/>
    </processing>

    <junctions>
        <no-turnarounds value="true"/>
        <junctions.corner-detail value="0"/>
        <junctions.limit-turn-speed value="-1.00"/>
        <rectangular-lane-cut value="0"/>
    </junctions>

    <pedestrian>
        <walkingareas value="0"/>
    </pedestrian>

</neteditConfiguration>
-->

<net version="1.20" avoidOverlap="0" xmlns:xsi="http://www.w3.org/2001/XMLSchema-instance" xsi:noNamespaceSchemaLocation="http://sumo.dlr.de/xsd/net_file.xsd">

    <location netOffset="0.00,0.00" convBoundary="0.00,75.00,475.00,125.00" origBoundary="0.00,0.00,300.00,300.00" projParameter="!"/>

    <edge id=":J1_0" function="internal">
        <lane id=":J1_0_0" index="0" speed="13.89" length="0.10" shape="100.00,100.00 100.00,100.00"/>
    </edge>
    <edge id=":J2_0" function="internal">
        <lane id=":J2_0_0" index="0" speed="13.89" length="9.61" shape="198.30,100.00 201.13,99.86 203.04,99.48 204.92,98.87 207.66,98.08"/>
    </edge>
    <edge id=":J2_1" function="internal">
        <lane id=":J2_1_0" index="0" speed="13.89" length="9.61" shape="198.30,100.00 201.13,100.14 203.04,100.52 204.92,101.13 207.66,101.92"/>
    </edge>
    <edge id=":J3_0" function="internal">
        <lane id=":J3_0_0" index="0" speed="13.89" length="0.79" shape="299.61,124.90 299.84,124.96 300.00,124.97 300.16,124.96 300.39,124.90"/>
    </edge>
    <edge id=":J4_0" function="internal">
        <lane id=":J4_0_0" index="0" speed="13.89" length="9.61" shape="392.34,98.08 395.08,98.87 396.96,99.48 398.87,99.86 401.70,100.00"/>
    </edge>
    <edge id=":J4_1" function="internal">
        <lane id=":J4_1_0" index="0" speed="13.89" length="9.61" shape="392.34,101.92 395.08,101.13 396.96,100.52 398.87,100.14 401.70,100.00"/>
    </edge>
    <edge id=":J6_0" function="internal">
        <lane id=":J6_0_0" index="0" speed="13.89" length="0.79" shape="299.61,75.10 299.84,75.04 300.00,75.03 300.16,75.04 300.39,75.10"/>
    </edge>

    <edge id="E0" from="J0" to="J1" priority="-1" spreadType="center">
        <lane id="E0_0" index="0" speed="13.89" length="100.00" shape="0.00,100.00 100.00,100.00"/>
    </edge>
    <edge id="E1" from="J1" to="J2" priority="-1" spreadType="center">
        <lane id="E1_0" index="0" speed="13.89" length="98.30" shape="100.00,100.00 198.30,100.00"/>
    </edge>
    <edge id="E2" from="J2" to="J3" priority="-1" spreadType="center">
        <lane id="E2_0" index="0" speed="13.89" length="94.78" shape="207.66,101.92 299.61,124.90"/>
    </edge>
    <edge id="E3" from="J3" to="J4" priority="-1" spreadType="center">
        <lane id="E3_0" index="0" speed="13.89" length="94.78" shape="300.39,124.90 392.34,101.92"/>
    </edge>
    <edge id="E4" from="J4" to="J5" priority="-1" spreadType="center">
        <lane id="E4_0" index="0" speed="13.89" length="73.30" shape="401.70,100.00 475.00,100.00"/>
    </edge>
    <edge id="E5" from="J2" to="J6" priority="-1" spreadType="center">
        <lane id="E5_0" index="0" speed="13.89" length="94.78" shape="207.66,98.08 299.61,75.10"/>
    </edge>
    <edge id="E6" from="J6" to="J4" priority="-1" spreadType="center">
        <lane id="E6_0" index="0" speed="13.89" length="94.78" shape="300.39,75.10 392.34,98.08"/>
    </edge>

    <junction id="J0" type="dead_end" x="0.00" y="100.00" incLanes="" intLanes="" shape="0.00,101.60 0.00,98.40"/>
    <junction id="J1" type="priority" x="100.00" y="100.00" incLanes="E0_0" intLanes=":J1_0_0" shape="100.00,101.60 100.00,98.40 100.00,101.60">
        <request index="0" response="0" foes="0" cont="0"/>
    </junction>
    <junction id="J2" type="priority" x="200.00" y="100.00" incLanes="E1_0" intLanes=":J2_0_0 :J2_1_0" shape="207.28,103.47 208.05,100.36 208.05,99.64 207.28,96.53 198.30,98.40 198.30,101.60">
        <request index="0" response="00" foes="00" cont="0"/>
        <request index="1" response="00" foes="00" cont="0"/>
    </junction>
    <junction id="J3" type="priority" x="300.00" y="125.00" incLanes="E2_0" intLanes=":J3_0_0" shape="300.78,126.46 300.00,123.35 299.22,126.46">
        <request index="0" response="0" foes="0" cont="0"/>
    </junction>
    <junction id="J4" type="priority" x="400.00" y="100.00" incLanes="E6_0 E3_0" intLanes=":J4_0_0 :J4_1_0" shape="401.70,101.60 401.70,98.40 392.72,96.53 391.95,99.64 391.95,100.36 392.72,103.47">
        <request index="0" response="00" foes="10" cont="0"/>
        <request index="1" response="01" foes="01" cont="0"/>
    </junction>
    <junction id="J5" type="dead_end" x="475.00" y="100.00" incLanes="E4_0" intLanes="" shape="475.00,98.40 475.00,101.60"/>
    <junction id="J6" type="priority" x="300.00" y="75.00" incLanes="E5_0" intLanes=":J6_0_0" shape="300.00,76.65 300.78,73.54 299.22,73.54">
        <request index="0" response="0" foes="0" cont="0"/>
    </junction>

    <connection from="E0" to="E1" fromLane="0" toLane="0" via=":J1_0_0" dir="s" state="M"/>
    <connection from="E1" to="E5" fromLane="0" toLane="0" via=":J2_0_0" dir="R" state="M"/>
    <connection from="E1" to="E2" fromLane="0" toLane="0" via=":J2_1_0" dir="s" state="M"/>
    <connection from="E2" to="E3" fromLane="0" toLane="0" via=":J3_0_0" dir="s" state="M"/>
    <connection from="E3" to="E4" fromLane="0" toLane="0" via=":J4_1_0" dir="s" state="m"/>
    <connection from="E5" to="E6" fromLane="0" toLane="0" via=":J6_0_0" dir="s" state="M"/>
    <connection from="E6" to="E4" fromLane="0" toLane="0" via=":J4_0_0" dir="s" state="M"/>

    <connection from=":J1_0" to="E1" fromLane="0" toLane="0" dir="s" state="M"/>
    <connection from=":J2_0" to="E5" fromLane="0" toLane="0" dir="R" state="M"/>
    <connection from=":J2_1" to="E2" fromLane="0" toLane="0" dir="s" state="M"/>
    <connection from=":J3_0" to="E3" fromLane="0" toLane="0" dir="s" state="M"/>
    <connection from=":J4_0" to="E4" fromLane="0" toLane="0" dir="s" state="M"/>
    <connection from=":J4_1" to="E4" fromLane="0" toLane="0" dir="s" state="M"/>
    <connection from=":J6_0" to="E6" fromLane="0" toLane="0" dir="s" state="M"/>

</net>
