<?xml version="1.0" encoding="UTF-8"?>
<routes xmlns:xsi="http://www.w3.org/2001/XMLSchema-instance" xsi:noNamespaceSchemaLocation="http://sumo.dlr.de/xsd/routes_file.xsd">
    <vType id="taxi" vClass="taxi">
        <param key="has.taxi.device" value="true"/>
        <param key="device.taxi.parking" value="false"/>
        <param key="device.taxi.stands-rerouter" value="rr0"/>
        <param key="parking.ignoreDest" value="1"/>
    </vType>

    <flow id="taxi" type="taxi" begin="0" end="1" number="10" from="B1B0" to="B0B1"/>

    <personFlow id="p" begin="100.00" number="10" period="200">
        <ride from="D1E1" busStop="bs_0" lines="taxi"/>
    </personFlow>

</routes>
