<?xml version="1.0" encoding="UTF-8"?>

<!-- generated on 2023-05-30 14:51:48 by Eclipse SUMO netedit Version v1_17_0+0564-8788c5e
-->

<additional xmlns:xsi="http://www.w3.org/2001/XMLSchema-instance" xsi:noNamespaceSchemaLocation="http://sumo.dlr.de/xsd/additional_file.xsd">
    <!-- StoppingPlaces -->
    <busStop id="bs_0" lane="B0C0_0" startPos="66" endPos="106"/>
    <parkingArea id="pa_0" lane="C0C1_0" startPos="-30" endPos="-6" roadsideCapacity="3" onRoad="true"/>
    <parkingArea id="pa_1" lane="D0D1_0" startPos="-30" endPos="-6" roadsideCapacity="3" onRoad="true"/>
    <parkingArea id="pa_2" lane="B0C0_0" startPos="90" endPos="106" roadsideCapacity="2" onRoad="true"/>

    <!-- edges are arbitrary but giving the parkingArea edges prevents a
         rerouter consistency warning -->
    <rerouter id="rr0" edges="C0C1 D0D1 B0C0" vTypes="taxi">
        <interval begin="0" end="1:0:0:0">
            <parkingAreaReroute id="pa_0" visible="true"/>
            <parkingAreaReroute id="pa_1" visible="true"/>
            <parkingAreaReroute id="pa_2" visible="true"/>
        </interval>
    </rerouter>
</additional>
