<?xml version="1.0" encoding="UTF-8"?>

<!-- generated on 2026-02-17T08:10:48.114613+01:00 by Eclipse SUMO netedit v1_26_0+0239-c56d2baccde
<neteditConfiguration xmlns:xsi="http://www.w3.org/2001/XMLSchema-instance" xsi:noNamespaceSchemaLocation="http://sumo.dlr.de/xsd/neteditConfiguration.xsd">

    <input>
        <sumo-net-file value="net.net.xml"/>
    </input>

    <output>
        <output-file value="net.net.xml"/>
    </output>

    <processing>
        <geometry.min-radius.fix.railways value="false"/>
        <geometry.avoid-overlap value="false"/>
        <geometry.max-grade.fix value="false"/>
        <offset.disable-normalization value="true"/>
        <lefthand value="0"/>
    </processing>

    <junctions>
        <no-internal-links value="true"/>
        <no-turnarounds value="true"/>
        <junctions.corner-detail value="5"/>
        <junctions.limit-turn-speed value="5.50"/>
        <rectangular-lane-cut value="0"/>
    </junctions>

    <pedestrian>
        <walkingareas value="false"/>
    </pedestrian>

</neteditConfiguration>
-->

<net version="1.20" junctionCornerDetail="5" limitTurnSpeed="5.50" avoidOverlap="0" xmlns:xsi="http://www.w3.org/2001/XMLSchema-instance" xsi:noNamespaceSchemaLocation="http://sumo.dlr.de/xsd/net_file.xsd">

    <location netOffset="0.00,0.00" convBoundary="300.00,0.00,1200.00,200.00" origBoundary="0.00,0.00,1500.00,200.00" projParameter="!"/>

    <edge id="B0B1" from="B0" to="B1" priority="-1">
        <lane id="B0B1_0" index="0" disallow="pedestrian" speed="13.89" length="100.00" shape="301.60,3.20 301.60,92.80"/>
    </edge>
    <edge id="B0C0" from="B0" to="C0" priority="-1">
        <lane id="B0C0_0" index="0" disallow="pedestrian" speed="13.89" length="300.00" shape="303.20,-1.60 592.80,-1.60"/>
    </edge>
    <edge id="B1B0" from="B1" to="B0" priority="-1">
        <lane id="B1B0_0" index="0" disallow="pedestrian" speed="13.89" length="100.00" shape="298.40,92.80 298.40,3.20"/>
    </edge>
    <edge id="B1B2" from="B1" to="B2" priority="-1">
        <lane id="B1B2_0" index="0" disallow="pedestrian" speed="13.89" length="100.00" shape="301.60,107.20 301.60,196.80"/>
    </edge>
    <edge id="B1C1" from="B1" to="C1" priority="-1">
        <lane id="B1C1_0" index="0" disallow="pedestrian" speed="13.89" length="300.00" shape="307.20,98.40 592.80,98.40"/>
    </edge>
    <edge id="B2B1" from="B2" to="B1" priority="-1">
        <lane id="B2B1_0" index="0" disallow="pedestrian" speed="13.89" length="100.00" shape="298.40,196.80 298.40,107.20"/>
    </edge>
    <edge id="B2C2" from="B2" to="C2" priority="-1">
        <lane id="B2C2_0" index="0" disallow="pedestrian" speed="13.89" length="300.00" shape="303.20,198.40 592.80,198.40"/>
    </edge>
    <edge id="C0B0" from="C0" to="B0" priority="-1">
        <lane id="C0B0_0" index="0" disallow="pedestrian" speed="13.89" length="300.00" shape="592.80,1.60 303.20,1.60"/>
    </edge>
    <edge id="C0C1" from="C0" to="C1" priority="-1">
        <lane id="C0C1_0" index="0" disallow="pedestrian" speed="13.89" length="100.00" shape="601.60,7.75 601.60,92.80"/>
    </edge>
    <edge id="C0D0" from="C0" to="D0" priority="-1">
        <lane id="C0D0_0" index="0" disallow="pedestrian" speed="13.89" length="303.89" shape="607.91,-0.35 894.24,45.62"/>
    </edge>
    <edge id="C1B1" from="C1" to="B1" priority="-1">
        <lane id="C1B1_0" index="0" disallow="pedestrian" speed="13.89" length="300.00" shape="592.80,101.60 307.20,101.60"/>
    </edge>
    <edge id="C1C0" from="C1" to="C0" priority="-1">
        <lane id="C1C0_0" index="0" disallow="pedestrian" speed="13.89" length="100.00" shape="598.40,92.80 598.40,7.75"/>
    </edge>
    <edge id="C1C2" from="C1" to="C2" priority="-1">
        <lane id="C1C2_0" index="0" disallow="pedestrian" speed="13.89" length="100.00" shape="601.60,107.20 601.60,192.80"/>
    </edge>
    <edge id="C1D1" from="C1" to="D1" priority="-1">
        <lane id="C1D1_0" index="0" disallow="pedestrian" speed="13.89" length="300.00" shape="607.20,98.40 892.80,98.40"/>
    </edge>
    <edge id="C2B2" from="C2" to="B2" priority="-1">
        <lane id="C2B2_0" index="0" disallow="pedestrian" speed="13.89" length="300.00" shape="592.80,201.60 303.20,201.60"/>
    </edge>
    <edge id="C2C1" from="C2" to="C1" priority="-1">
        <lane id="C2C1_0" index="0" disallow="pedestrian" speed="13.89" length="100.00" shape="598.40,192.80 598.40,107.20"/>
    </edge>
    <edge id="C2D2" from="C2" to="D2" priority="-1">
        <lane id="C2D2_0" index="0" disallow="pedestrian" speed="13.89" length="300.00" shape="607.20,198.40 892.80,198.40"/>
    </edge>
    <edge id="D0C0" from="D0" to="C0" priority="-1">
        <lane id="D0C0_0" index="0" disallow="pedestrian" speed="13.89" length="303.89" shape="893.73,48.78 607.40,2.81"/>
    </edge>
    <edge id="D0D1" from="D0" to="D1" priority="-1">
        <lane id="D0D1_0" index="0" disallow="pedestrian" speed="13.89" length="51.83" shape="901.64,54.31 901.61,92.80"/>
    </edge>
    <edge id="D0E0" from="D0" to="E0" priority="-1">
        <lane id="D0E0_0" index="0" disallow="pedestrian" speed="13.89" length="303.79" shape="905.86,45.62 1196.04,-0.98"/>
    </edge>
    <edge id="D1C1" from="D1" to="C1" priority="-1">
        <lane id="D1C1_0" index="0" disallow="pedestrian" speed="13.89" length="300.00" shape="892.80,101.60 607.20,101.60"/>
    </edge>
    <edge id="D1D0" from="D1" to="D0" priority="-1">
        <lane id="D1D0_0" index="0" disallow="pedestrian" speed="13.89" length="51.83" shape="898.41,92.80 898.44,54.31"/>
    </edge>
    <edge id="D1D2" from="D1" to="D2" priority="-1">
        <lane id="D1D2_0" index="0" disallow="pedestrian" speed="13.89" length="100.00" shape="901.60,107.20 901.60,192.80"/>
    </edge>
    <edge id="D1E1" from="D1" to="E1" priority="-1">
        <lane id="D1E1_0" index="0" disallow="pedestrian" speed="13.89" length="300.00" shape="907.20,98.40 1192.80,98.40"/>
    </edge>
    <edge id="D2C2" from="D2" to="C2" priority="-1">
        <lane id="D2C2_0" index="0" disallow="pedestrian" speed="13.89" length="300.00" shape="892.80,201.60 607.20,201.60"/>
    </edge>
    <edge id="D2D1" from="D2" to="D1" priority="-1">
        <lane id="D2D1_0" index="0" disallow="pedestrian" speed="13.89" length="100.00" shape="898.40,192.80 898.40,107.20"/>
    </edge>
    <edge id="D2E2" from="D2" to="E2" priority="-1">
        <lane id="D2E2_0" index="0" disallow="pedestrian" speed="13.89" length="300.00" shape="907.20,198.40 1196.80,198.40"/>
    </edge>
    <edge id="E0D0" from="E0" to="D0" priority="-1">
        <lane id="E0D0_0" index="0" disallow="pedestrian" speed="13.89" length="303.79" shape="1196.55,2.18 906.36,48.78"/>
    </edge>
    <edge id="E0E1" from="E0" to="E1" priority="-1">
        <lane id="E0E1_0" index="0" disallow="pedestrian" speed="13.89" length="100.00" shape="1201.60,3.75 1201.60,92.80"/>
    </edge>
    <edge id="E1D1" from="E1" to="D1" priority="-1">
        <lane id="E1D1_0" index="0" disallow="pedestrian" speed="13.89" length="300.00" shape="1192.80,101.60 907.20,101.60"/>
    </edge>
    <edge id="E1E0" from="E1" to="E0" priority="-1">
        <lane id="E1E0_0" index="0" disallow="pedestrian" speed="13.89" length="100.00" shape="1198.40,92.80 1198.40,3.75"/>
    </edge>
    <edge id="E1E2" from="E1" to="E2" priority="-1">
        <lane id="E1E2_0" index="0" disallow="pedestrian" speed="13.89" length="100.00" shape="1201.60,107.20 1201.60,196.80"/>
    </edge>
    <edge id="E2D2" from="E2" to="D2" priority="-1">
        <lane id="E2D2_0" index="0" disallow="pedestrian" speed="13.89" length="300.00" shape="1196.80,201.60 907.20,201.60"/>
    </edge>
    <edge id="E2E1" from="E2" to="E1" priority="-1">
        <lane id="E2E1_0" index="0" disallow="pedestrian" speed="13.89" length="100.00" shape="1198.40,196.80 1198.40,107.20"/>
    </edge>

    <junction id="B0" type="priority" x="300.00" y="0.00" incLanes="B1B0_0 C0B0_0" intLanes="" shape="296.80,3.20 303.20,3.20 303.20,-3.20 299.64,-2.49 298.40,-1.60 297.51,-0.36 296.98,1.24">
        <request index="0" response="0000" foes="1000"/>
        <request index="1" response="0100" foes="0100"/>
        <request index="2" response="0000" foes="0010"/>
        <request index="3" response="0001" foes="0001"/>
    </junction>
    <junction id="B1" type="priority" x="300.00" y="100.00" incLanes="B2B1_0 C1B1_0 B0B1_0" intLanes="" shape="296.80,107.20 303.20,107.20 303.64,104.98 304.20,104.20 304.98,103.64 305.98,103.31 307.20,103.20 307.20,96.80 304.98,96.36 304.20,95.80 303.64,95.02 303.31,94.02 303.20,92.80 296.80,92.80">
        <request index="0" response="000000000" foes="100010000"/>
        <request index="1" response="011000000" foes="011110000"/>
        <request index="2" response="010001000" foes="010001000"/>
        <request index="3" response="010000000" foes="010000100"/>
        <request index="4" response="010000011" foes="110000011"/>
        <request index="5" response="001000010" foes="001000010"/>
        <request index="6" response="000000000" foes="000100010"/>
        <request index="7" response="000000000" foes="000011110"/>
        <request index="8" response="000010001" foes="000010001"/>
    </junction>
    <junction id="B2" type="priority" x="300.00" y="200.00" incLanes="C2B2_0 B1B2_0" intLanes="" shape="303.20,203.20 303.20,196.80 296.80,196.80 297.51,200.36 298.40,201.60 299.64,202.49 301.24,203.02">
        <request index="0" response="0000" foes="1000"/>
        <request index="1" response="0100" foes="0100"/>
        <request index="2" response="0000" foes="0010"/>
        <request index="3" response="0001" foes="0001"/>
    </junction>
    <junction id="C0" type="priority" x="600.00" y="0.00" incLanes="C1C0_0 D0C0_0 B0C0_0" intLanes="" shape="596.80,7.75 603.20,7.75 603.64,5.60 604.19,4.91 604.96,4.48 605.94,4.31 607.15,4.39 608.16,-1.93 604.92,-2.45 602.51,-2.80 600.52,-3.02 598.52,-3.14 596.09,-3.19 592.80,-3.20 592.80,3.20 595.02,3.71 595.80,4.34 596.36,5.22 596.69,6.36">
        <request index="0" response="000010000" foes="100010000"/>
        <request index="1" response="011010000" foes="011110000"/>
        <request index="2" response="010001000" foes="010001000"/>
        <request index="3" response="000000000" foes="010000100"/>
        <request index="4" response="000000000" foes="110000011"/>
        <request index="5" response="001000010" foes="001000010"/>
        <request index="6" response="000000000" foes="000100010"/>
        <request index="7" response="000011000" foes="000011110"/>
        <request index="8" response="000010001" foes="000010001"/>
    </junction>
    <junction id="C1" type="priority" x="600.00" y="100.00" incLanes="C2C1_0 D1C1_0 C0C1_0 B1C1_0" intLanes="" shape="596.80,107.20 603.20,107.20 603.64,104.98 604.20,104.20 604.98,103.64 605.98,103.31 607.20,103.20 607.20,96.80 604.98,96.36 604.20,95.80 603.64,95.02 603.31,94.02 603.20,92.80 596.80,92.80 596.36,95.02 595.80,95.80 595.02,96.36 594.02,96.69 592.80,96.80 592.80,103.20 595.02,103.64 595.80,104.20 596.36,104.98 596.69,105.98">
        <request index="0"  response="0000000000000000" foes="1000010000100000"/>
        <request index="1"  response="0000000000000000" foes="0111110001100000"/>
        <request index="2"  response="0000001100000000" foes="0110011111100000"/>
        <request index="3"  response="0100001000010000" foes="0100001000010000"/>
        <request index="4"  response="0000001000000000" foes="0100001000001000"/>
        <request index="5"  response="0000011000000111" foes="1100011000000111"/>
        <request index="6"  response="0011011000000110" foes="0111111000000110"/>
        <request index="7"  response="0010000100000100" foes="0010000100000100"/>
        <request index="8"  response="0000000000000000" foes="0010000010000100"/>
        <request index="9"  response="0000000000000000" foes="0110000001111100"/>
        <request index="10" response="0000000000000111" foes="1110000001100111"/>
        <request index="11" response="0001000001000010" foes="0001000001000010"/>
        <request index="12" response="0000000000000010" foes="0000100001000010"/>
        <request index="13" response="0000011100000110" foes="0000011111000110"/>
        <request index="14" response="0000011001110110" foes="0000011001111110"/>
        <request index="15" response="0000010000100001" foes="0000010000100001"/>
    </junction>
    <junction id="C2" type="priority" x="600.00" y="200.00" incLanes="D2C2_0 C1C2_0 B2C2_0" intLanes="" shape="607.20,203.20 607.20,196.80 604.98,196.36 604.20,195.80 603.64,195.02 603.31,194.02 603.20,192.80 596.80,192.80 596.36,195.02 595.80,195.80 595.02,196.36 594.02,196.69 592.80,196.80 592.80,203.20">
        <request index="0" response="000000000" foes="100010000"/>
        <request index="1" response="011000000" foes="011110000"/>
        <request index="2" response="010001000" foes="010001000"/>
        <request index="3" response="010000000" foes="010000100"/>
        <request index="4" response="010000011" foes="110000011"/>
        <request index="5" response="001000010" foes="001000010"/>
        <request index="6" response="000000000" foes="000100010"/>
        <request index="7" response="000000000" foes="000011110"/>
        <request index="8" response="000010001" foes="000010001"/>
    </junction>
    <junction id="D0" type="priority" x="900.05" y="48.17" incLanes="E0D0_0 C0D0_0 D1D0_0" intLanes="" shape="906.62,50.36 905.60,44.04 903.26,44.40 901.50,44.62 900.05,44.70 898.59,44.62 896.84,44.40 894.49,44.04 893.48,50.36 895.35,51.04 896.00,51.61 896.47,52.35 896.75,53.25 896.84,54.31 903.24,54.32 903.62,52.36 904.09,51.62 904.74,51.04 905.59,50.62">
        <request index="0" response="000000000" foes="100010000"/>
        <request index="1" response="000000000" foes="011110000"/>
        <request index="2" response="010001000" foes="010001000"/>
        <request index="3" response="000000000" foes="010000100"/>
        <request index="4" response="000000011" foes="110000011"/>
        <request index="5" response="001000010" foes="001000010"/>
        <request index="6" response="000000010" foes="000100010"/>
        <request index="7" response="000011010" foes="000011110"/>
        <request index="8" response="000010001" foes="000010001"/>
    </junction>
    <junction id="D1" type="priority" x="900.00" y="100.00" incLanes="D2D1_0 E1D1_0 D0D1_0 C1D1_0" intLanes="" shape="896.80,107.20 903.20,107.20 903.64,104.98 904.20,104.20 904.98,103.64 905.98,103.31 907.20,103.20 907.20,96.80 904.98,96.36 904.20,95.80 903.65,95.02 903.32,94.02 903.21,92.80 896.81,92.79 896.36,95.02 895.80,95.80 895.02,96.35 894.02,96.69 892.80,96.80 892.80,103.20 895.02,103.64 895.80,104.20 896.36,104.98 896.69,105.98">
        <request index="0"  response="0000000000100000" foes="1000010000100000"/>
        <request index="1"  response="0111000001100000" foes="0111110001100000"/>
        <request index="2"  response="0110001101100000" foes="0110011111100000"/>
        <request index="3"  response="0100001000010000" foes="0100001000010000"/>
        <request index="4"  response="0000000000000000" foes="0100001000001000"/>
        <request index="5"  response="0000000000000000" foes="1100011000000111"/>
        <request index="6"  response="0011000000000000" foes="0111111000000110"/>
        <request index="7"  response="0010000100000100" foes="0010000100000100"/>
        <request index="8"  response="0010000000000000" foes="0010000010000100"/>
        <request index="9"  response="0110000001110000" foes="0110000001111100"/>
        <request index="10" response="0110000001100111" foes="1110000001100111"/>
        <request index="11" response="0001000001000010" foes="0001000001000010"/>
        <request index="12" response="0000000000000000" foes="0000100001000010"/>
        <request index="13" response="0000000000000000" foes="0000011111000110"/>
        <request index="14" response="0000000001110000" foes="0000011001111110"/>
        <request index="15" response="0000010000100001" foes="0000010000100001"/>
    </junction>
    <junction id="D2" type="priority" x="900.00" y="200.00" incLanes="E2D2_0 D1D2_0 C2D2_0" intLanes="" shape="907.20,203.20 907.20,196.80 904.98,196.36 904.20,195.80 903.64,195.02 903.31,194.02 903.20,192.80 896.80,192.80 896.36,195.02 895.80,195.80 895.02,196.36 894.02,196.69 892.80,196.80 892.80,203.20">
        <request index="0" response="000000000" foes="100010000"/>
        <request index="1" response="011000000" foes="011110000"/>
        <request index="2" response="010001000" foes="010001000"/>
        <request index="3" response="010000000" foes="010000100"/>
        <request index="4" response="010000011" foes="110000011"/>
        <request index="5" response="001000010" foes="001000010"/>
        <request index="6" response="000000000" foes="000100010"/>
        <request index="7" response="000000000" foes="000011110"/>
        <request index="8" response="000010001" foes="000010001"/>
    </junction>
    <junction id="E0" type="priority" x="1200.00" y="0.00" incLanes="E1E0_0 D0E0_0" intLanes="" shape="1196.80,3.75 1203.20,3.75 1202.99,1.49 1202.38,-0.28 1201.35,-1.58 1199.90,-2.39 1198.05,-2.72 1195.79,-2.56">
        <request index="0" response="0000" foes="1000"/>
        <request index="1" response="0100" foes="0100"/>
        <request index="2" response="0000" foes="0010"/>
        <request index="3" response="0001" foes="0001"/>
    </junction>
    <junction id="E1" type="priority" x="1200.00" y="100.00" incLanes="E2E1_0 E0E1_0 D1E1_0" intLanes="" shape="1196.80,107.20 1203.20,107.20 1203.20,92.80 1196.80,92.80 1196.36,95.02 1195.80,95.80 1195.02,96.36 1194.02,96.69 1192.80,96.80 1192.80,103.20 1195.02,103.64 1195.80,104.20 1196.36,104.98 1196.69,105.98">
        <request index="0" response="000000000" foes="100010000"/>
        <request index="1" response="000000000" foes="011110000"/>
        <request index="2" response="010001000" foes="010001000"/>
        <request index="3" response="000000000" foes="010000100"/>
        <request index="4" response="000000011" foes="110000011"/>
        <request index="5" response="001000010" foes="001000010"/>
        <request index="6" response="000000010" foes="000100010"/>
        <request index="7" response="000011010" foes="000011110"/>
        <request index="8" response="000010001" foes="000010001"/>
    </junction>
    <junction id="E2" type="priority" x="1200.00" y="200.00" incLanes="E1E2_0 D2E2_0" intLanes="" shape="1203.20,196.80 1196.80,196.80 1196.80,203.20 1200.36,202.49 1201.60,201.60 1202.49,200.36 1203.02,198.76">
        <request index="0" response="0000" foes="1000"/>
        <request index="1" response="0100" foes="0100"/>
        <request index="2" response="0000" foes="0010"/>
        <request index="3" response="0001" foes="0001"/>
    </junction>

    <connection from="B0B1" to="B1C1" fromLane="0" toLane="0" dir="r" state="M"/>
    <connection from="B0B1" to="B1B2" fromLane="0" toLane="0" dir="s" state="M"/>
    <connection from="B0B1" to="B1B0" fromLane="0" toLane="0" dir="t" state="m"/>
    <connection from="B0C0" to="C0D0" fromLane="0" toLane="0" dir="s" state="M"/>
    <connection from="B0C0" to="C0C1" fromLane="0" toLane="0" dir="l" state="m"/>
    <connection from="B0C0" to="C0B0" fromLane="0" toLane="0" dir="t" state="m"/>
    <connection from="B1B0" to="B0C0" fromLane="0" toLane="0" keepClear="0" dir="l" state="M"/>
    <connection from="B1B0" to="B0B1" fromLane="0" toLane="0" dir="t" state="m"/>
    <connection from="B1B2" to="B2C2" fromLane="0" toLane="0" keepClear="0" dir="r" state="M"/>
    <connection from="B1B2" to="B2B1" fromLane="0" toLane="0" dir="t" state="m"/>
    <connection from="B1C1" to="C1C0" fromLane="0" toLane="0" dir="r" state="m"/>
    <connection from="B1C1" to="C1D1" fromLane="0" toLane="0" dir="s" state="m"/>
    <connection from="B1C1" to="C1C2" fromLane="0" toLane="0" dir="l" state="m"/>
    <connection from="B1C1" to="C1B1" fromLane="0" toLane="0" dir="t" state="m"/>
    <connection from="B2B1" to="B1B0" fromLane="0" toLane="0" dir="s" state="M"/>
    <connection from="B2B1" to="B1C1" fromLane="0" toLane="0" dir="l" state="m"/>
    <connection from="B2B1" to="B1B2" fromLane="0" toLane="0" dir="t" state="m"/>
    <connection from="B2C2" to="C2C1" fromLane="0" toLane="0" dir="r" state="M"/>
    <connection from="B2C2" to="C2D2" fromLane="0" toLane="0" dir="s" state="M"/>
    <connection from="B2C2" to="C2B2" fromLane="0" toLane="0" dir="t" state="m"/>
    <connection from="C0B0" to="B0B1" fromLane="0" toLane="0" keepClear="0" dir="r" state="M"/>
    <connection from="C0B0" to="B0C0" fromLane="0" toLane="0" dir="t" state="m"/>
    <connection from="C0C1" to="C1D1" fromLane="0" toLane="0" dir="r" state="M"/>
    <connection from="C0C1" to="C1C2" fromLane="0" toLane="0" dir="s" state="M"/>
    <connection from="C0C1" to="C1B1" fromLane="0" toLane="0" dir="l" state="m"/>
    <connection from="C0C1" to="C1C0" fromLane="0" toLane="0" dir="t" state="m"/>
    <connection from="C0D0" to="D0E0" fromLane="0" toLane="0" dir="s" state="M"/>
    <connection from="C0D0" to="D0D1" fromLane="0" toLane="0" dir="l" state="m"/>
    <connection from="C0D0" to="D0C0" fromLane="0" toLane="0" dir="t" state="m"/>
    <connection from="C1B1" to="B1B2" fromLane="0" toLane="0" dir="r" state="m"/>
    <connection from="C1B1" to="B1B0" fromLane="0" toLane="0" dir="l" state="m"/>
    <connection from="C1B1" to="B1C1" fromLane="0" toLane="0" dir="t" state="m"/>
    <connection from="C1C0" to="C0B0" fromLane="0" toLane="0" dir="r" state="m"/>
    <connection from="C1C0" to="C0D0" fromLane="0" toLane="0" dir="l" state="m"/>
    <connection from="C1C0" to="C0C1" fromLane="0" toLane="0" dir="t" state="m"/>
    <connection from="C1C2" to="C2D2" fromLane="0" toLane="0" dir="r" state="m"/>
    <connection from="C1C2" to="C2B2" fromLane="0" toLane="0" dir="l" state="m"/>
    <connection from="C1C2" to="C2C1" fromLane="0" toLane="0" dir="t" state="m"/>
    <connection from="C1D1" to="D1D0" fromLane="0" toLane="0" dir="r" state="M"/>
    <connection from="C1D1" to="D1E1" fromLane="0" toLane="0" dir="s" state="M"/>
    <connection from="C1D1" to="D1D2" fromLane="0" toLane="0" dir="l" state="m"/>
    <connection from="C1D1" to="D1C1" fromLane="0" toLane="0" dir="t" state="m"/>
    <connection from="C2B2" to="B2B1" fromLane="0" toLane="0" keepClear="0" dir="l" state="M"/>
    <connection from="C2B2" to="B2C2" fromLane="0" toLane="0" dir="t" state="m"/>
    <connection from="C2C1" to="C1B1" fromLane="0" toLane="0" dir="r" state="M"/>
    <connection from="C2C1" to="C1C0" fromLane="0" toLane="0" dir="s" state="M"/>
    <connection from="C2C1" to="C1D1" fromLane="0" toLane="0" dir="l" state="m"/>
    <connection from="C2C1" to="C1C2" fromLane="0" toLane="0" dir="t" state="m"/>
    <connection from="C2D2" to="D2D1" fromLane="0" toLane="0" dir="r" state="M"/>
    <connection from="C2D2" to="D2E2" fromLane="0" toLane="0" dir="s" state="M"/>
    <connection from="C2D2" to="D2C2" fromLane="0" toLane="0" dir="t" state="m"/>
    <connection from="D0C0" to="C0C1" fromLane="0" toLane="0" dir="r" state="M"/>
    <connection from="D0C0" to="C0B0" fromLane="0" toLane="0" dir="s" state="M"/>
    <connection from="D0C0" to="C0D0" fromLane="0" toLane="0" dir="t" state="m"/>
    <connection from="D0D1" to="D1E1" fromLane="0" toLane="0" dir="r" state="m"/>
    <connection from="D0D1" to="D1D2" fromLane="0" toLane="0" dir="s" state="m"/>
    <connection from="D0D1" to="D1C1" fromLane="0" toLane="0" dir="l" state="m"/>
    <connection from="D0D1" to="D1D0" fromLane="0" toLane="0" dir="t" state="m"/>
    <connection from="D0E0" to="E0E1" fromLane="0" toLane="0" keepClear="0" dir="l" state="M"/>
    <connection from="D0E0" to="E0D0" fromLane="0" toLane="0" dir="t" state="m"/>
    <connection from="D1C1" to="C1C2" fromLane="0" toLane="0" dir="r" state="m"/>
    <connection from="D1C1" to="C1B1" fromLane="0" toLane="0" dir="s" state="m"/>
    <connection from="D1C1" to="C1C0" fromLane="0" toLane="0" dir="l" state="m"/>
    <connection from="D1C1" to="C1D1" fromLane="0" toLane="0" dir="t" state="m"/>
    <connection from="D1D0" to="D0C0" fromLane="0" toLane="0" dir="r" state="m"/>
    <connection from="D1D0" to="D0E0" fromLane="0" toLane="0" dir="l" state="m"/>
    <connection from="D1D0" to="D0D1" fromLane="0" toLane="0" dir="t" state="m"/>
    <connection from="D1D2" to="D2E2" fromLane="0" toLane="0" dir="r" state="m"/>
    <connection from="D1D2" to="D2C2" fromLane="0" toLane="0" dir="l" state="m"/>
    <connection from="D1D2" to="D2D1" fromLane="0" toLane="0" dir="t" state="m"/>
    <connection from="D1E1" to="E1E0" fromLane="0" toLane="0" dir="r" state="m"/>
    <connection from="D1E1" to="E1E2" fromLane="0" toLane="0" dir="l" state="m"/>
    <connection from="D1E1" to="E1D1" fromLane="0" toLane="0" dir="t" state="m"/>
    <connection from="D2C2" to="C2B2" fromLane="0" toLane="0" dir="s" state="M"/>
    <connection from="D2C2" to="C2C1" fromLane="0" toLane="0" dir="l" state="m"/>
    <connection from="D2C2" to="C2D2" fromLane="0" toLane="0" dir="t" state="m"/>
    <connection from="D2D1" to="D1C1" fromLane="0" toLane="0" dir="r" state="m"/>
    <connection from="D2D1" to="D1D0" fromLane="0" toLane="0" dir="s" state="m"/>
    <connection from="D2D1" to="D1E1" fromLane="0" toLane="0" dir="l" state="m"/>
    <connection from="D2D1" to="D1D2" fromLane="0" toLane="0" dir="t" state="m"/>
    <connection from="D2E2" to="E2E1" fromLane="0" toLane="0" keepClear="0" dir="r" state="M"/>
    <connection from="D2E2" to="E2D2" fromLane="0" toLane="0" dir="t" state="m"/>
    <connection from="E0D0" to="D0D1" fromLane="0" toLane="0" dir="r" state="M"/>
    <connection from="E0D0" to="D0C0" fromLane="0" toLane="0" dir="s" state="M"/>
    <connection from="E0D0" to="D0E0" fromLane="0" toLane="0" dir="t" state="m"/>
    <connection from="E0E1" to="E1E2" fromLane="0" toLane="0" dir="s" state="M"/>
    <connection from="E0E1" to="E1D1" fromLane="0" toLane="0" dir="l" state="m"/>
    <connection from="E0E1" to="E1E0" fromLane="0" toLane="0" dir="t" state="m"/>
    <connection from="E1D1" to="D1D2" fromLane="0" toLane="0" dir="r" state="M"/>
    <connection from="E1D1" to="D1C1" fromLane="0" toLane="0" dir="s" state="M"/>
    <connection from="E1D1" to="D1D0" fromLane="0" toLane="0" dir="l" state="m"/>
    <connection from="E1D1" to="D1E1" fromLane="0" toLane="0" dir="t" state="m"/>
    <connection from="E1E0" to="E0D0" fromLane="0" toLane="0" keepClear="0" dir="r" state="M"/>
    <connection from="E1E0" to="E0E1" fromLane="0" toLane="0" dir="t" state="m"/>
    <connection from="E1E2" to="E2D2" fromLane="0" toLane="0" keepClear="0" dir="l" state="M"/>
    <connection from="E1E2" to="E2E1" fromLane="0" toLane="0" dir="t" state="m"/>
    <connection from="E2D2" to="D2C2" fromLane="0" toLane="0" dir="s" state="M"/>
    <connection from="E2D2" to="D2D1" fromLane="0" toLane="0" dir="l" state="m"/>
    <connection from="E2D2" to="D2E2" fromLane="0" toLane="0" dir="t" state="m"/>
    <connection from="E2E1" to="E1D1" fromLane="0" toLane="0" dir="r" state="M"/>
    <connection from="E2E1" to="E1E0" fromLane="0" toLane="0" dir="s" state="M"/>
    <connection from="E2E1" to="E1E2" fromLane="0" toLane="0" dir="t" state="m"/>

</net>
