<?xml version="1.0" encoding="UTF-8"?>

<!-- generated on 2026-02-12T05:39:15.862955+01:00 by Eclipse SUMO sumo v1_26_0+0160-8f2424ad75a
This data file and the accompanying materials
are made available under the terms of the Eclipse Public License v2.0
which accompanies this distribution, and is available at
http://www.eclipse.org/legal/epl-v20.html
This file may also be made available under the following Secondary
Licenses when the conditions for such availability set forth in the Eclipse
Public License 2.0 are satisfied: GNU General Public License, version 2
or later which is available at
https://www.gnu.org/licenses/old-licenses/gpl-2.0-standalone.html
SPDX-License-Identifier: EPL-2.0 OR GPL-2.0-or-later
<sumoConfiguration xmlns:xsi="http://www.w3.org/2001/XMLSchema-instance" xsi:noNamespaceSchemaLocation="http://sumo.dlr.de/xsd/sumoConfiguration.xsd">

    <input>
        <net-file value="net.net.xml"/>
        <route-files value="input_routes.rou.xml"/>
        <additional-files value="input_additional.add.xml"/>
    </input>

    <output>
        <write-license value="true"/>
        <battery-output value="battery.xml"/>
        <battery-output.precision value="4"/>
        <chargingstations-output value="chargingstations.xml"/>
        <chargingstations-output.aggregated value="true"/>
    </output>

    <processing>
        <default.speeddev value="0"/>
    </processing>

    <report>
        <xml-validation value="never"/>
        <duration-log.disable value="true"/>
        <no-step-log value="true"/>
    </report>

    <battery>
        <device.battery.probability value="1"/>
    </battery>

    <mesoscopic>
        <mesosim value="true"/>
    </mesoscopic>

</sumoConfiguration>
-->

<battery-export xmlns:xsi="http://www.w3.org/2001/XMLSchema-instance" xsi:noNamespaceSchemaLocation="http://sumo.dlr.de/xsd/battery_file.xsd">
    <timestep time="0.00">
        <vehicle id="veh0" energyConsumed="0.0000" totalEnergyConsumed="0.0000" totalEnergyRegenerated="0.0000" actualBatteryCapacity="13000.0000" maximumBatteryCapacity="35000.0000" chargingStationId="NULL" energyCharged="0.0000" energyChargedInTransit="0.0000" energyChargedStopped="0.0000" speed="0.0000" acceleration="0.0000" x="-1000.0000" y="995.0500" edge="D2" posOnLane="0.0000" timeStopped="0"/>
    </timestep>
    <timestep time="1.00">
        <vehicle id="veh0" energyConsumed="0.0000" totalEnergyConsumed="0.0000" totalEnergyRegenerated="0.0000" actualBatteryCapacity="13000.0000" maximumBatteryCapacity="35000.0000" chargingStationId="NULL" energyCharged="0.0000" energyChargedInTransit="0.0000" energyChargedStopped="0.0000" speed="0.0000" acceleration="0.0000" x="-1000.0000" y="995.0500" edge="D2" posOnLane="0.0000" timeStopped="0"/>
    </timestep>
    <timestep time="2.00">
        <vehicle id="veh0" energyConsumed="0.0000" totalEnergyConsumed="0.0000" totalEnergyRegenerated="0.0000" actualBatteryCapacity="13000.0000" maximumBatteryCapacity="35000.0000" chargingStationId="NULL" energyCharged="0.0000" energyChargedInTransit="0.0000" energyChargedStopped="0.0000" speed="0.0000" acceleration="0.0000" x="-1000.0000" y="995.0500" edge="D2" posOnLane="0.0000" timeStopped="0"/>
    </timestep>
    <timestep time="3.00">
        <vehicle id="veh0" energyConsumed="0.0000" totalEnergyConsumed="0.0000" totalEnergyRegenerated="0.0000" actualBatteryCapacity="13000.0000" maximumBatteryCapacity="35000.0000" chargingStationId="NULL" energyCharged="0.0000" energyChargedInTransit="0.0000" energyChargedStopped="0.0000" speed="0.0000" acceleration="0.0000" x="-1000.0000" y="995.0500" edge="D2" posOnLane="0.0000" timeStopped="0"/>
    </timestep>
    <timestep time="4.00">
        <vehicle id="veh0" energyConsumed="0.0000" totalEnergyConsumed="0.0000" totalEnergyRegenerated="0.0000" actualBatteryCapacity="13000.0000" maximumBatteryCapacity="35000.0000" chargingStationId="NULL" energyCharged="0.0000" energyChargedInTransit="0.0000" energyChargedStopped="0.0000" speed="0.0000" acceleration="0.0000" x="-1000.0000" y="995.0500" edge="D2" posOnLane="0.0000" timeStopped="0"/>
    </timestep>
    <timestep time="5.00">
        <vehicle id="veh0" energyConsumed="0.0000" totalEnergyConsumed="0.0000" totalEnergyRegenerated="0.0000" actualBatteryCapacity="13000.0000" maximumBatteryCapacity="35000.0000" chargingStationId="NULL" energyCharged="0.0000" energyChargedInTransit="0.0000" energyChargedStopped="0.0000" speed="0.0000" acceleration="0.0000" x="-1000.0000" y="995.0500" edge="D2" posOnLane="0.0000" timeStopped="0"/>
        <vehicle id="veh1" energyConsumed="0.0000" totalEnergyConsumed="0.0000" totalEnergyRegenerated="0.0000" actualBatteryCapacity="12000.0000" maximumBatteryCapacity="35000.0000" chargingStationId="NULL" energyCharged="0.0000" energyChargedInTransit="0.0000" energyChargedStopped="0.0000" speed="0.0000" acceleration="0.0000" x="-1000.0000" y="995.0500" edge="D2" posOnLane="0.0000" timeStopped="0"/>
    </timestep>
    <timestep time="6.00">
        <vehicle id="veh0" energyConsumed="0.0000" totalEnergyConsumed="0.0000" totalEnergyRegenerated="0.0000" actualBatteryCapacity="13000.0000" maximumBatteryCapacity="35000.0000" chargingStationId="NULL" energyCharged="0.0000" energyChargedInTransit="0.0000" energyChargedStopped="0.0000" speed="0.0000" acceleration="0.0000" x="-1000.0000" y="995.0500" edge="D2" posOnLane="0.0000" timeStopped="0"/>
        <vehicle id="veh1" energyConsumed="0.0000" totalEnergyConsumed="0.0000" totalEnergyRegenerated="0.0000" actualBatteryCapacity="12000.0000" maximumBatteryCapacity="35000.0000" chargingStationId="NULL" energyCharged="0.0000" energyChargedInTransit="0.0000" energyChargedStopped="0.0000" speed="0.0000" acceleration="0.0000" x="-1000.0000" y="995.0500" edge="D2" posOnLane="0.0000" timeStopped="0"/>
    </timestep>
    <timestep time="7.00">
        <vehicle id="veh0" energyConsumed="0.0000" totalEnergyConsumed="0.0000" totalEnergyRegenerated="0.0000" actualBatteryCapacity="13000.0000" maximumBatteryCapacity="35000.0000" chargingStationId="NULL" energyCharged="0.0000" energyChargedInTransit="0.0000" energyChargedStopped="0.0000" speed="0.0000" acceleration="0.0000" x="-1000.0000" y="995.0500" edge="D2" posOnLane="0.0000" timeStopped="0"/>
        <vehicle id="veh1" energyConsumed="0.0000" totalEnergyConsumed="0.0000" totalEnergyRegenerated="0.0000" actualBatteryCapacity="12000.0000" maximumBatteryCapacity="35000.0000" chargingStationId="NULL" energyCharged="0.0000" energyChargedInTransit="0.0000" energyChargedStopped="0.0000" speed="0.0000" acceleration="0.0000" x="-1000.0000" y="995.0500" edge="D2" posOnLane="0.0000" timeStopped="0"/>
    </timestep>
    <timestep time="8.00">
        <vehicle id="veh0" energyConsumed="0.0000" totalEnergyConsumed="0.0000" totalEnergyRegenerated="0.0000" actualBatteryCapacity="13000.0000" maximumBatteryCapacity="35000.0000" chargingStationId="NULL" energyCharged="0.0000" energyChargedInTransit="0.0000" energyChargedStopped="0.0000" speed="0.0000" acceleration="0.0000" x="-1000.0000" y="995.0500" edge="D2" posOnLane="0.0000" timeStopped="0"/>
        <vehicle id="veh1" energyConsumed="0.0000" totalEnergyConsumed="0.0000" totalEnergyRegenerated="0.0000" actualBatteryCapacity="12000.0000" maximumBatteryCapacity="35000.0000" chargingStationId="NULL" energyCharged="0.0000" energyChargedInTransit="0.0000" energyChargedStopped="0.0000" speed="0.0000" acceleration="0.0000" x="-1000.0000" y="995.0500" edge="D2" posOnLane="0.0000" timeStopped="0"/>
    </timestep>
    <timestep time="9.00">
        <vehicle id="veh0" energyConsumed="0.0000" totalEnergyConsumed="0.0000" totalEnergyRegenerated="0.0000" actualBatteryCapacity="13000.0000" maximumBatteryCapacity="35000.0000" chargingStationId="NULL" energyCharged="0.0000" energyChargedInTransit="0.0000" energyChargedStopped="0.0000" speed="0.0000" acceleration="0.0000" x="-1000.0000" y="995.0500" edge="D2" posOnLane="0.0000" timeStopped="0"/>
        <vehicle id="veh1" energyConsumed="0.0000" totalEnergyConsumed="0.0000" totalEnergyRegenerated="0.0000" actualBatteryCapacity="12000.0000" maximumBatteryCapacity="35000.0000" chargingStationId="NULL" energyCharged="0.0000" energyChargedInTransit="0.0000" energyChargedStopped="0.0000" speed="0.0000" acceleration="0.0000" x="-1000.0000" y="995.0500" edge="D2" posOnLane="0.0000" timeStopped="0"/>
    </timestep>
    <timestep time="10.00">
        <vehicle id="veh0" energyConsumed="0.0000" totalEnergyConsumed="0.0000" totalEnergyRegenerated="0.0000" actualBatteryCapacity="13000.0000" maximumBatteryCapacity="35000.0000" chargingStationId="NULL" energyCharged="0.0000" energyChargedInTransit="0.0000" energyChargedStopped="0.0000" speed="0.0000" acceleration="0.0000" x="-1000.0000" y="995.0500" edge="D2" posOnLane="0.0000" timeStopped="0"/>
        <vehicle id="veh1" energyConsumed="0.0000" totalEnergyConsumed="0.0000" totalEnergyRegenerated="0.0000" actualBatteryCapacity="12000.0000" maximumBatteryCapacity="35000.0000" chargingStationId="NULL" energyCharged="0.0000" energyChargedInTransit="0.0000" energyChargedStopped="0.0000" speed="0.0000" acceleration="0.0000" x="-1000.0000" y="995.0500" edge="D2" posOnLane="0.0000" timeStopped="0"/>
        <vehicle id="veh2" energyConsumed="0.0000" totalEnergyConsumed="0.0000" totalEnergyRegenerated="0.0000" actualBatteryCapacity="10000.0000" maximumBatteryCapacity="35000.0000" chargingStationId="NULL" energyCharged="0.0000" energyChargedInTransit="0.0000" energyChargedStopped="0.0000" speed="0.0000" acceleration="0.0000" x="-1000.0000" y="995.0500" edge="D2" posOnLane="0.0000" timeStopped="0"/>
    </timestep>
    <timestep time="11.00">
        <vehicle id="veh0" energyConsumed="0.0000" totalEnergyConsumed="0.0000" totalEnergyRegenerated="0.0000" actualBatteryCapacity="13000.0000" maximumBatteryCapacity="35000.0000" chargingStationId="NULL" energyCharged="0.0000" energyChargedInTransit="0.0000" energyChargedStopped="0.0000" speed="0.0000" acceleration="0.0000" x="-1000.0000" y="995.0500" edge="D2" posOnLane="0.0000" timeStopped="0"/>
        <vehicle id="veh1" energyConsumed="0.0000" totalEnergyConsumed="0.0000" totalEnergyRegenerated="0.0000" actualBatteryCapacity="12000.0000" maximumBatteryCapacity="35000.0000" chargingStationId="NULL" energyCharged="0.0000" energyChargedInTransit="0.0000" energyChargedStopped="0.0000" speed="0.0000" acceleration="0.0000" x="-1000.0000" y="995.0500" edge="D2" posOnLane="0.0000" timeStopped="0"/>
        <vehicle id="veh2" energyConsumed="0.0000" totalEnergyConsumed="0.0000" totalEnergyRegenerated="0.0000" actualBatteryCapacity="10000.0000" maximumBatteryCapacity="35000.0000" chargingStationId="NULL" energyCharged="0.0000" energyChargedInTransit="0.0000" energyChargedStopped="0.0000" speed="0.0000" acceleration="0.0000" x="-1000.0000" y="995.0500" edge="D2" posOnLane="0.0000" timeStopped="0"/>
    </timestep>
    <timestep time="12.00">
        <vehicle id="veh0" energyConsumed="0.0000" totalEnergyConsumed="0.0000" totalEnergyRegenerated="0.0000" actualBatteryCapacity="13000.0000" maximumBatteryCapacity="35000.0000" chargingStationId="NULL" energyCharged="0.0000" energyChargedInTransit="0.0000" energyChargedStopped="0.0000" speed="0.0000" acceleration="0.0000" x="-1000.0000" y="995.0500" edge="D2" posOnLane="0.0000" timeStopped="0"/>
        <vehicle id="veh1" energyConsumed="0.0000" totalEnergyConsumed="0.0000" totalEnergyRegenerated="0.0000" actualBatteryCapacity="12000.0000" maximumBatteryCapacity="35000.0000" chargingStationId="NULL" energyCharged="0.0000" energyChargedInTransit="0.0000" energyChargedStopped="0.0000" speed="0.0000" acceleration="0.0000" x="-1000.0000" y="995.0500" edge="D2" posOnLane="0.0000" timeStopped="0"/>
        <vehicle id="veh2" energyConsumed="0.0000" totalEnergyConsumed="0.0000" totalEnergyRegenerated="0.0000" actualBatteryCapacity="10000.0000" maximumBatteryCapacity="35000.0000" chargingStationId="NULL" energyCharged="0.0000" energyChargedInTransit="0.0000" energyChargedStopped="0.0000" speed="0.0000" acceleration="0.0000" x="-1000.0000" y="995.0500" edge="D2" posOnLane="0.0000" timeStopped="0"/>
    </timestep>
    <timestep time="13.00">
        <vehicle id="veh0" energyConsumed="0.0000" totalEnergyConsumed="0.0000" totalEnergyRegenerated="0.0000" actualBatteryCapacity="13000.0000" maximumBatteryCapacity="35000.0000" chargingStationId="NULL" energyCharged="0.0000" energyChargedInTransit="0.0000" energyChargedStopped="0.0000" speed="0.0000" acceleration="0.0000" x="-1000.0000" y="995.0500" edge="D2" posOnLane="0.0000" timeStopped="0"/>
        <vehicle id="veh1" energyConsumed="0.0000" totalEnergyConsumed="0.0000" totalEnergyRegenerated="0.0000" actualBatteryCapacity="12000.0000" maximumBatteryCapacity="35000.0000" chargingStationId="NULL" energyCharged="0.0000" energyChargedInTransit="0.0000" energyChargedStopped="0.0000" speed="0.0000" acceleration="0.0000" x="-1000.0000" y="995.0500" edge="D2" posOnLane="0.0000" timeStopped="0"/>
        <vehicle id="veh2" energyConsumed="0.0000" totalEnergyConsumed="0.0000" totalEnergyRegenerated="0.0000" actualBatteryCapacity="10000.0000" maximumBatteryCapacity="35000.0000" chargingStationId="NULL" energyCharged="0.0000" energyChargedInTransit="0.0000" energyChargedStopped="0.0000" speed="0.0000" acceleration="0.0000" x="-1000.0000" y="995.0500" edge="D2" posOnLane="0.0000" timeStopped="0"/>
    </timestep>
    <timestep time="14.00">
        <vehicle id="veh0" energyConsumed="0.0000" totalEnergyConsumed="0.0000" totalEnergyRegenerated="0.0000" actualBatteryCapacity="13000.0000" maximumBatteryCapacity="35000.0000" chargingStationId="NULL" energyCharged="0.0000" energyChargedInTransit="0.0000" energyChargedStopped="0.0000" speed="0.0000" acceleration="0.0000" x="-1000.0000" y="995.0500" edge="D2" posOnLane="0.0000" timeStopped="0"/>
        <vehicle id="veh1" energyConsumed="0.0000" totalEnergyConsumed="0.0000" totalEnergyRegenerated="0.0000" actualBatteryCapacity="12000.0000" maximumBatteryCapacity="35000.0000" chargingStationId="NULL" energyCharged="0.0000" energyChargedInTransit="0.0000" energyChargedStopped="0.0000" speed="0.0000" acceleration="0.0000" x="-1000.0000" y="995.0500" edge="D2" posOnLane="0.0000" timeStopped="0"/>
        <vehicle id="veh2" energyConsumed="0.0000" totalEnergyConsumed="0.0000" totalEnergyRegenerated="0.0000" actualBatteryCapacity="10000.0000" maximumBatteryCapacity="35000.0000" chargingStationId="NULL" energyCharged="0.0000" energyChargedInTransit="0.0000" energyChargedStopped="0.0000" speed="0.0000" acceleration="0.0000" x="-1000.0000" y="995.0500" edge="D2" posOnLane="0.0000" timeStopped="0"/>
    </timestep>
    <timestep time="15.00">
        <vehicle id="veh0" energyConsumed="55.3919" totalEnergyConsumed="55.3919" totalEnergyRegenerated="0.0000" actualBatteryCapacity="12944.6081" maximumBatteryCapacity="35000.0000" chargingStationId="NULL" energyCharged="0.0000" energyChargedInTransit="0.0000" energyChargedStopped="0.0000" speed="0.0000" acceleration="0.0000" x="-900.0000" y="995.0500" edge="D2" posOnLane="100.0000" timeStopped="0"/>
        <vehicle id="veh1" energyConsumed="0.0000" totalEnergyConsumed="0.0000" totalEnergyRegenerated="0.0000" actualBatteryCapacity="12000.0000" maximumBatteryCapacity="35000.0000" chargingStationId="NULL" energyCharged="0.0000" energyChargedInTransit="0.0000" energyChargedStopped="0.0000" speed="0.0000" acceleration="0.0000" x="-1000.0000" y="995.0500" edge="D2" posOnLane="0.0000" timeStopped="0"/>
        <vehicle id="veh2" energyConsumed="0.0000" totalEnergyConsumed="0.0000" totalEnergyRegenerated="0.0000" actualBatteryCapacity="10000.0000" maximumBatteryCapacity="35000.0000" chargingStationId="NULL" energyCharged="0.0000" energyChargedInTransit="0.0000" energyChargedStopped="0.0000" speed="0.0000" acceleration="0.0000" x="-1000.0000" y="995.0500" edge="D2" posOnLane="0.0000" timeStopped="0"/>
    </timestep>
    <timestep time="16.00">
        <vehicle id="veh0" energyConsumed="55.3919" totalEnergyConsumed="55.3919" totalEnergyRegenerated="0.0000" actualBatteryCapacity="12944.6081" maximumBatteryCapacity="35000.0000" chargingStationId="NULL" energyCharged="0.0000" energyChargedInTransit="0.0000" energyChargedStopped="0.0000" speed="0.0000" acceleration="0.0000" x="-900.0000" y="995.0500" edge="D2" posOnLane="100.0000" timeStopped="0"/>
        <vehicle id="veh1" energyConsumed="0.0000" totalEnergyConsumed="0.0000" totalEnergyRegenerated="0.0000" actualBatteryCapacity="12000.0000" maximumBatteryCapacity="35000.0000" chargingStationId="NULL" energyCharged="0.0000" energyChargedInTransit="0.0000" energyChargedStopped="0.0000" speed="0.0000" acceleration="0.0000" x="-1000.0000" y="995.0500" edge="D2" posOnLane="0.0000" timeStopped="0"/>
        <vehicle id="veh2" energyConsumed="0.0000" totalEnergyConsumed="0.0000" totalEnergyRegenerated="0.0000" actualBatteryCapacity="10000.0000" maximumBatteryCapacity="35000.0000" chargingStationId="NULL" energyCharged="0.0000" energyChargedInTransit="0.0000" energyChargedStopped="0.0000" speed="0.0000" acceleration="0.0000" x="-1000.0000" y="995.0500" edge="D2" posOnLane="0.0000" timeStopped="0"/>
    </timestep>
    <timestep time="17.00">
        <vehicle id="veh0" energyConsumed="55.3919" totalEnergyConsumed="55.3919" totalEnergyRegenerated="0.0000" actualBatteryCapacity="12944.6081" maximumBatteryCapacity="35000.0000" chargingStationId="NULL" energyCharged="0.0000" energyChargedInTransit="0.0000" energyChargedStopped="0.0000" speed="0.0000" acceleration="0.0000" x="-900.0000" y="995.0500" edge="D2" posOnLane="100.0000" timeStopped="0"/>
        <vehicle id="veh1" energyConsumed="0.0000" totalEnergyConsumed="0.0000" totalEnergyRegenerated="0.0000" actualBatteryCapacity="12000.0000" maximumBatteryCapacity="35000.0000" chargingStationId="NULL" energyCharged="0.0000" energyChargedInTransit="0.0000" energyChargedStopped="0.0000" speed="0.0000" acceleration="0.0000" x="-1000.0000" y="995.0500" edge="D2" posOnLane="0.0000" timeStopped="0"/>
        <vehicle id="veh2" energyConsumed="0.0000" totalEnergyConsumed="0.0000" totalEnergyRegenerated="0.0000" actualBatteryCapacity="10000.0000" maximumBatteryCapacity="35000.0000" chargingStationId="NULL" energyCharged="0.0000" energyChargedInTransit="0.0000" energyChargedStopped="0.0000" speed="0.0000" acceleration="0.0000" x="-1000.0000" y="995.0500" edge="D2" posOnLane="0.0000" timeStopped="0"/>
    </timestep>
    <timestep time="18.00">
        <vehicle id="veh0" energyConsumed="55.3919" totalEnergyConsumed="55.3919" totalEnergyRegenerated="0.0000" actualBatteryCapacity="12944.6081" maximumBatteryCapacity="35000.0000" chargingStationId="NULL" energyCharged="0.0000" energyChargedInTransit="0.0000" energyChargedStopped="0.0000" speed="0.0000" acceleration="0.0000" x="-900.0000" y="995.0500" edge="D2" posOnLane="100.0000" timeStopped="0"/>
        <vehicle id="veh1" energyConsumed="0.0000" totalEnergyConsumed="0.0000" totalEnergyRegenerated="0.0000" actualBatteryCapacity="12000.0000" maximumBatteryCapacity="35000.0000" chargingStationId="NULL" energyCharged="0.0000" energyChargedInTransit="0.0000" energyChargedStopped="0.0000" speed="0.0000" acceleration="0.0000" x="-1000.0000" y="995.0500" edge="D2" posOnLane="0.0000" timeStopped="0"/>
        <vehicle id="veh2" energyConsumed="0.0000" totalEnergyConsumed="0.0000" totalEnergyRegenerated="0.0000" actualBatteryCapacity="10000.0000" maximumBatteryCapacity="35000.0000" chargingStationId="NULL" energyCharged="0.0000" energyChargedInTransit="0.0000" energyChargedStopped="0.0000" speed="0.0000" acceleration="0.0000" x="-1000.0000" y="995.0500" edge="D2" posOnLane="0.0000" timeStopped="0"/>
    </timestep>
    <timestep time="19.00">
        <vehicle id="veh0" energyConsumed="55.3919" totalEnergyConsumed="55.3919" totalEnergyRegenerated="0.0000" actualBatteryCapacity="12944.6081" maximumBatteryCapacity="35000.0000" chargingStationId="NULL" energyCharged="0.0000" energyChargedInTransit="0.0000" energyChargedStopped="0.0000" speed="0.0000" acceleration="0.0000" x="-900.0000" y="995.0500" edge="D2" posOnLane="100.0000" timeStopped="0"/>
        <vehicle id="veh1" energyConsumed="0.0000" totalEnergyConsumed="0.0000" totalEnergyRegenerated="0.0000" actualBatteryCapacity="12000.0000" maximumBatteryCapacity="35000.0000" chargingStationId="NULL" energyCharged="0.0000" energyChargedInTransit="0.0000" energyChargedStopped="0.0000" speed="0.0000" acceleration="0.0000" x="-1000.0000" y="995.0500" edge="D2" posOnLane="0.0000" timeStopped="0"/>
        <vehicle id="veh2" energyConsumed="0.0000" totalEnergyConsumed="0.0000" totalEnergyRegenerated="0.0000" actualBatteryCapacity="10000.0000" maximumBatteryCapacity="35000.0000" chargingStationId="NULL" energyCharged="0.0000" energyChargedInTransit="0.0000" energyChargedStopped="0.0000" speed="0.0000" acceleration="0.0000" x="-1000.0000" y="995.0500" edge="D2" posOnLane="0.0000" timeStopped="0"/>
    </timestep>
    <timestep time="20.00">
        <vehicle id="veh0" energyConsumed="55.3919" totalEnergyConsumed="55.3919" totalEnergyRegenerated="0.0000" actualBatteryCapacity="12944.6081" maximumBatteryCapacity="35000.0000" chargingStationId="NULL" energyCharged="0.0000" energyChargedInTransit="0.0000" energyChargedStopped="0.0000" speed="0.0000" acceleration="0.0000" x="-900.0000" y="995.0500" edge="D2" posOnLane="100.0000" timeStopped="0"/>
        <vehicle id="veh1" energyConsumed="55.3919" totalEnergyConsumed="55.3919" totalEnergyRegenerated="0.0000" actualBatteryCapacity="11944.6081" maximumBatteryCapacity="35000.0000" chargingStationId="NULL" energyCharged="0.0000" energyChargedInTransit="0.0000" energyChargedStopped="0.0000" speed="0.0000" acceleration="0.0000" x="-900.0000" y="995.0500" edge="D2" posOnLane="100.0000" timeStopped="0"/>
        <vehicle id="veh2" energyConsumed="0.0000" totalEnergyConsumed="0.0000" totalEnergyRegenerated="0.0000" actualBatteryCapacity="10000.0000" maximumBatteryCapacity="35000.0000" chargingStationId="NULL" energyCharged="0.0000" energyChargedInTransit="0.0000" energyChargedStopped="0.0000" speed="0.0000" acceleration="0.0000" x="-1000.0000" y="995.0500" edge="D2" posOnLane="0.0000" timeStopped="0"/>
    </timestep>
    <timestep time="21.00">
        <vehicle id="veh0" energyConsumed="55.3919" totalEnergyConsumed="55.3919" totalEnergyRegenerated="0.0000" actualBatteryCapacity="12944.6081" maximumBatteryCapacity="35000.0000" chargingStationId="NULL" energyCharged="0.0000" energyChargedInTransit="0.0000" energyChargedStopped="0.0000" speed="0.0000" acceleration="0.0000" x="-900.0000" y="995.0500" edge="D2" posOnLane="100.0000" timeStopped="0"/>
        <vehicle id="veh1" energyConsumed="55.3919" totalEnergyConsumed="55.3919" totalEnergyRegenerated="0.0000" actualBatteryCapacity="11944.6081" maximumBatteryCapacity="35000.0000" chargingStationId="NULL" energyCharged="0.0000" energyChargedInTransit="0.0000" energyChargedStopped="0.0000" speed="0.0000" acceleration="0.0000" x="-900.0000" y="995.0500" edge="D2" posOnLane="100.0000" timeStopped="0"/>
        <vehicle id="veh2" energyConsumed="0.0000" totalEnergyConsumed="0.0000" totalEnergyRegenerated="0.0000" actualBatteryCapacity="10000.0000" maximumBatteryCapacity="35000.0000" chargingStationId="NULL" energyCharged="0.0000" energyChargedInTransit="0.0000" energyChargedStopped="0.0000" speed="0.0000" acceleration="0.0000" x="-1000.0000" y="995.0500" edge="D2" posOnLane="0.0000" timeStopped="0"/>
    </timestep>
    <timestep time="22.00">
        <vehicle id="veh0" energyConsumed="55.3919" totalEnergyConsumed="55.3919" totalEnergyRegenerated="0.0000" actualBatteryCapacity="12944.6081" maximumBatteryCapacity="35000.0000" chargingStationId="NULL" energyCharged="0.0000" energyChargedInTransit="0.0000" energyChargedStopped="0.0000" speed="0.0000" acceleration="0.0000" x="-900.0000" y="995.0500" edge="D2" posOnLane="100.0000" timeStopped="0"/>
        <vehicle id="veh1" energyConsumed="55.3919" totalEnergyConsumed="55.3919" totalEnergyRegenerated="0.0000" actualBatteryCapacity="11944.6081" maximumBatteryCapacity="35000.0000" chargingStationId="NULL" energyCharged="0.0000" energyChargedInTransit="0.0000" energyChargedStopped="0.0000" speed="0.0000" acceleration="0.0000" x="-900.0000" y="995.0500" edge="D2" posOnLane="100.0000" timeStopped="0"/>
        <vehicle id="veh2" energyConsumed="0.0000" totalEnergyConsumed="0.0000" totalEnergyRegenerated="0.0000" actualBatteryCapacity="10000.0000" maximumBatteryCapacity="35000.0000" chargingStationId="NULL" energyCharged="0.0000" energyChargedInTransit="0.0000" energyChargedStopped="0.0000" speed="0.0000" acceleration="0.0000" x="-1000.0000" y="995.0500" edge="D2" posOnLane="0.0000" timeStopped="0"/>
    </timestep>
    <timestep time="23.00">
        <vehicle id="veh0" energyConsumed="55.3919" totalEnergyConsumed="55.3919" totalEnergyRegenerated="0.0000" actualBatteryCapacity="12944.6081" maximumBatteryCapacity="35000.0000" chargingStationId="NULL" energyCharged="0.0000" energyChargedInTransit="0.0000" energyChargedStopped="0.0000" speed="0.0000" acceleration="0.0000" x="-900.0000" y="995.0500" edge="D2" posOnLane="100.0000" timeStopped="0"/>
        <vehicle id="veh1" energyConsumed="55.3919" totalEnergyConsumed="55.3919" totalEnergyRegenerated="0.0000" actualBatteryCapacity="11944.6081" maximumBatteryCapacity="35000.0000" chargingStationId="NULL" energyCharged="0.0000" energyChargedInTransit="0.0000" energyChargedStopped="0.0000" speed="0.0000" acceleration="0.0000" x="-900.0000" y="995.0500" edge="D2" posOnLane="100.0000" timeStopped="0"/>
        <vehicle id="veh2" energyConsumed="0.0000" totalEnergyConsumed="0.0000" totalEnergyRegenerated="0.0000" actualBatteryCapacity="10000.0000" maximumBatteryCapacity="35000.0000" chargingStationId="NULL" energyCharged="0.0000" energyChargedInTransit="0.0000" energyChargedStopped="0.0000" speed="0.0000" acceleration="0.0000" x="-1000.0000" y="995.0500" edge="D2" posOnLane="0.0000" timeStopped="0"/>
    </timestep>
    <timestep time="24.00">
        <vehicle id="veh0" energyConsumed="55.3919" totalEnergyConsumed="55.3919" totalEnergyRegenerated="0.0000" actualBatteryCapacity="12944.6081" maximumBatteryCapacity="35000.0000" chargingStationId="NULL" energyCharged="0.0000" energyChargedInTransit="0.0000" energyChargedStopped="0.0000" speed="0.0000" acceleration="0.0000" x="-900.0000" y="995.0500" edge="D2" posOnLane="100.0000" timeStopped="0"/>
        <vehicle id="veh1" energyConsumed="55.3919" totalEnergyConsumed="55.3919" totalEnergyRegenerated="0.0000" actualBatteryCapacity="11944.6081" maximumBatteryCapacity="35000.0000" chargingStationId="NULL" energyCharged="0.0000" energyChargedInTransit="0.0000" energyChargedStopped="0.0000" speed="0.0000" acceleration="0.0000" x="-900.0000" y="995.0500" edge="D2" posOnLane="100.0000" timeStopped="0"/>
        <vehicle id="veh2" energyConsumed="0.0000" totalEnergyConsumed="0.0000" totalEnergyRegenerated="0.0000" actualBatteryCapacity="10000.0000" maximumBatteryCapacity="35000.0000" chargingStationId="NULL" energyCharged="0.0000" energyChargedInTransit="0.0000" energyChargedStopped="0.0000" speed="0.0000" acceleration="0.0000" x="-1000.0000" y="995.0500" edge="D2" posOnLane="0.0000" timeStopped="0"/>
    </timestep>
    <timestep time="25.00">
        <vehicle id="veh0" energyConsumed="55.3919" totalEnergyConsumed="55.3919" totalEnergyRegenerated="0.0000" actualBatteryCapacity="12944.6081" maximumBatteryCapacity="35000.0000" chargingStationId="NULL" energyCharged="0.0000" energyChargedInTransit="0.0000" energyChargedStopped="0.0000" speed="0.0000" acceleration="0.0000" x="-900.0000" y="995.0500" edge="D2" posOnLane="100.0000" timeStopped="0"/>
        <vehicle id="veh1" energyConsumed="55.3919" totalEnergyConsumed="55.3919" totalEnergyRegenerated="0.0000" actualBatteryCapacity="11944.6081" maximumBatteryCapacity="35000.0000" chargingStationId="NULL" energyCharged="0.0000" energyChargedInTransit="0.0000" energyChargedStopped="0.0000" speed="0.0000" acceleration="0.0000" x="-900.0000" y="995.0500" edge="D2" posOnLane="100.0000" timeStopped="0"/>
        <vehicle id="veh2" energyConsumed="0.0000" totalEnergyConsumed="0.0000" totalEnergyRegenerated="0.0000" actualBatteryCapacity="10000.0000" maximumBatteryCapacity="35000.0000" chargingStationId="NULL" energyCharged="0.0000" energyChargedInTransit="0.0000" energyChargedStopped="0.0000" speed="0.0000" acceleration="0.0000" x="-1000.0000" y="995.0500" edge="D2" posOnLane="0.0000" timeStopped="0"/>
    </timestep>
    <timestep time="26.00">
        <vehicle id="veh0" energyConsumed="55.3919" totalEnergyConsumed="55.3919" totalEnergyRegenerated="0.0000" actualBatteryCapacity="12944.6081" maximumBatteryCapacity="35000.0000" chargingStationId="NULL" energyCharged="0.0000" energyChargedInTransit="0.0000" energyChargedStopped="0.0000" speed="0.0000" acceleration="0.0000" x="-900.0000" y="995.0500" edge="D2" posOnLane="100.0000" timeStopped="0"/>
        <vehicle id="veh1" energyConsumed="55.3919" totalEnergyConsumed="55.3919" totalEnergyRegenerated="0.0000" actualBatteryCapacity="11944.6081" maximumBatteryCapacity="35000.0000" chargingStationId="NULL" energyCharged="0.0000" energyChargedInTransit="0.0000" energyChargedStopped="0.0000" speed="0.0000" acceleration="0.0000" x="-900.0000" y="995.0500" edge="D2" posOnLane="100.0000" timeStopped="0"/>
        <vehicle id="veh2" energyConsumed="0.0000" totalEnergyConsumed="0.0000" totalEnergyRegenerated="0.0000" actualBatteryCapacity="10000.0000" maximumBatteryCapacity="35000.0000" chargingStationId="NULL" energyCharged="0.0000" energyChargedInTransit="0.0000" energyChargedStopped="0.0000" speed="0.0000" acceleration="0.0000" x="-1000.0000" y="995.0500" edge="D2" posOnLane="0.0000" timeStopped="0"/>
    </timestep>
    <timestep time="27.00">