<?xml version="1.0" encoding="UTF-8"?>

<!-- generated on 2026-02-11T12:28:58.968128+01:00 by Eclipse SUMO netedit v1_26_0+0153-12dfdacf20f
<neteditConfiguration xmlns:xsi="http://www.w3.org/2001/XMLSchema-instance" xsi:noNamespaceSchemaLocation="http://sumo.dlr.de/xsd/neteditConfiguration.xsd">

    <input>
        <sumo-net-file value="net.net.xml"/>
    </input>

    <output>
        <output-file value="net.net.xml"/>
        <output.street-names value="true"/>
    </output>

    <processing>
        <geometry.min-radius.fix.railways value="false"/>
        <geometry.avoid-overlap value="false"/>
        <geometry.max-grade.fix value="false"/>
        <offset.disable-normalization value="true"/>
        <lefthand value="0"/>
    </processing>

    <junctions>
        <no-turnarounds value="true"/>
        <junctions.corner-detail value="5"/>
        <junctions.limit-turn-speed value="5.50"/>
        <rectangular-lane-cut value="0"/>
    </junctions>

    <pedestrian>
        <walkingareas value="0"/>
    </pedestrian>

</neteditConfiguration>
-->

<net version="1.20" junctionCornerDetail="5" limitTurnSpeed="5.50" avoidOverlap="0" xmlns:xsi="http://www.w3.org/2001/XMLSchema-instance" xsi:noNamespaceSchemaLocation="http://sumo.dlr.de/xsd/net_file.xsd">

    <location netOffset="0.00,0.00" convBoundary="0.00,0.00,300.00,100.00" origBoundary="-10000000000.00,-10000000000.00,10000000000.00,10000000000.00" projParameter="!"/>

    <edge id=":J0_0" function="internal">
        <lane id=":J0_0_0" index="0" allow="rail_urban" speed="4.38" length="2.58" shape="0.00,1.60 0.10,0.90 0.40,0.40 0.90,0.10 1.60,0.00"/>
    </edge>
    <edge id=":J1_0" function="internal">
        <lane id=":J1_0_0" index="0" allow="rail_urban" speed="13.89" length="0.10" shape="100.00,0.00 100.00,0.00"/>
    </edge>
    <edge id=":J2_0" function="internal">
        <lane id=":J2_0_0" index="0" allow="rail_urban" speed="13.89" length="0.10" shape="200.00,0.00 200.00,0.00"/>
    </edge>
    <edge id=":J3_0" function="internal">
        <lane id=":J3_0_0" index="0" allow="rail_urban" speed="4.38" length="2.58" shape="298.40,0.00 299.10,0.10 299.60,0.40 299.90,0.90 300.00,1.60"/>
    </edge>
    <edge id=":J4_0" function="internal">
        <lane id=":J4_0_0" index="0" allow="rail_urban" speed="4.38" length="2.58" shape="300.00,98.40 299.90,99.10 299.60,99.60 299.10,99.90 298.40,100.00"/>
    </edge>
    <edge id=":J5_0" function="internal">
        <lane id=":J5_0_0" index="0" allow="rail_urban" speed="13.89" length="0.10" shape="200.00,100.00 200.00,100.00"/>
    </edge>
    <edge id=":J6_0" function="internal">
        <lane id=":J6_0_0" index="0" allow="rail_urban" speed="13.89" length="0.10" shape="100.00,100.00 100.00,100.00"/>
    </edge>
    <edge id=":J7_0" function="internal">
        <lane id=":J7_0_0" index="0" allow="rail_urban" speed="4.38" length="2.58" shape="1.60,100.00 0.90,99.90 0.40,99.60 0.10,99.10 0.00,98.40"/>
    </edge>

    <edge id="E0" from="J0" to="J1" priority="-1" spreadType="center">
        <lane id="E0_0" index="0" allow="rail_urban" speed="13.89" length="98.40" shape="1.60,0.00 100.00,0.00"/>
    </edge>
    <edge id="E1" from="J1" to="J2" priority="-1" spreadType="center">
        <lane id="E1_0" index="0" allow="rail_urban" speed="13.89" length="100.00" shape="100.00,0.00 200.00,0.00"/>
    </edge>
    <edge id="E2" from="J2" to="J3" priority="-1" spreadType="center">
        <lane id="E2_0" index="0" allow="rail_urban" speed="13.89" length="98.40" shape="200.00,0.00 298.40,0.00"/>
    </edge>
    <edge id="E3" from="J3" to="J4" priority="-1" spreadType="center">
        <lane id="E3_0" index="0" allow="rail_urban" speed="13.89" length="96.80" shape="300.00,1.60 300.00,98.40"/>
    </edge>
    <edge id="E4" from="J4" to="J5" priority="-1" spreadType="center">
        <lane id="E4_0" index="0" allow="rail_urban" speed="13.89" length="98.40" shape="298.40,100.00 200.00,100.00"/>
    </edge>
    <edge id="E5" from="J5" to="J6" priority="-1" spreadType="center">
        <lane id="E5_0" index="0" allow="rail_urban" speed="13.89" length="100.00" shape="200.00,100.00 100.00,100.00"/>
    </edge>
    <edge id="E6" from="J6" to="J7" priority="-1" spreadType="center">
        <lane id="E6_0" index="0" allow="rail_urban" speed="13.89" length="98.40" shape="100.00,100.00 1.60,100.00"/>
    </edge>
    <edge id="E7" from="J7" to="J0" priority="-1" spreadType="center">
        <lane id="E7_0" index="0" allow="rail_urban" speed="13.89" length="96.80" shape="0.00,98.40 0.00,1.60"/>
    </edge>

    <junction id="J0" type="priority" x="0.00" y="0.00" incLanes="E7_0" intLanes=":J0_0_0" shape="-1.60,1.60 1.60,1.60 1.60,-1.60 -0.18,-1.24 -0.80,-0.80 -1.24,-0.18 -1.51,0.62">
        <request index="0" response="0" foes="0" cont="0"/>
    </junction>
    <junction id="J1" type="priority" x="100.00" y="0.00" incLanes="E0_0" intLanes=":J1_0_0" shape="100.00,1.60 100.00,-1.60 100.00,1.60">
        <request index="0" response="0" foes="0" cont="0"/>
    </junction>
    <junction id="J2" type="priority" x="200.00" y="0.00" incLanes="E1_0" intLanes=":J2_0_0" shape="200.00,1.60 200.00,-1.60 200.00,1.60">
        <request index="0" response="0" foes="0" cont="0"/>
    </junction>
    <junction id="J3" type="priority" x="300.00" y="0.00" incLanes="E2_0" intLanes=":J3_0_0" shape="298.40,1.60 301.60,1.60 301.24,-0.18 300.80,-0.80 300.18,-1.24 299.38,-1.51 298.40,-1.60">
        <request index="0" response="0" foes="0" cont="0"/>
    </junction>
    <junction id="J4" type="priority" x="300.00" y="100.00" incLanes="E3_0" intLanes=":J4_0_0" shape="301.60,98.40 298.40,98.40 298.40,101.60 300.18,101.24 300.80,100.80 301.24,100.18 301.51,99.38">
        <request index="0" response="0" foes="0" cont="0"/>
    </junction>
    <junction id="J5" type="priority" x="200.00" y="100.00" incLanes="E4_0" intLanes=":J5_0_0" shape="200.00,101.60 200.00,98.40 200.00,101.60">
        <request index="0" response="0" foes="0" cont="0"/>
    </junction>
    <junction id="J6" type="priority" x="100.00" y="100.00" incLanes="E5_0" intLanes=":J6_0_0" shape="100.00,101.60 100.00,98.40 100.00,101.60">
        <request index="0" response="0" foes="0" cont="0"/>
    </junction>
    <junction id="J7" type="priority" x="0.00" y="100.00" incLanes="E6_0" intLanes=":J7_0_0" shape="1.60,101.60 1.60,98.40 -1.60,98.40 -1.24,100.18 -0.80,100.80 -0.18,101.24 0.62,101.51">
        <request index="0" response="0" foes="0" cont="0"/>
    </junction>

    <connection from="E0" to="E1" fromLane="0" toLane="0" via=":J1_0_0" dir="s" state="M"/>
    <connection from="E1" to="E2" fromLane="0" toLane="0" via=":J2_0_0" dir="s" state="M"/>
    <connection from="E2" to="E3" fromLane="0" toLane="0" via=":J3_0_0" dir="l" state="M"/>
    <connection from="E3" to="E4" fromLane="0" toLane="0" via=":J4_0_0" dir="l" state="M"/>
    <connection from="E4" to="E5" fromLane="0" toLane="0" via=":J5_0_0" dir="s" state="M"/>
    <connection from="E5" to="E6" fromLane="0" toLane="0" via=":J6_0_0" dir="s" state="M"/>
    <connection from="E6" to="E7" fromLane="0" toLane="0" via=":J7_0_0" dir="l" state="M"/>
    <connection from="E7" to="E0" fromLane="0" toLane="0" via=":J0_0_0" dir="l" state="M"/>

    <connection from=":J0_0" to="E0" fromLane="0" toLane="0" dir="l" state="M"/>
    <connection from=":J1_0" to="E1" fromLane="0" toLane="0" dir="s" state="M"/>
    <connection from=":J2_0" to="E2" fromLane="0" toLane="0" dir="s" state="M"/>
    <connection from=":J3_0" to="E3" fromLane="0" toLane="0" dir="l" state="M"/>
    <connection from=":J4_0" to="E4" fromLane="0" toLane="0" dir="l" state="M"/>
    <connection from=":J5_0" to="E5" fromLane="0" toLane="0" dir="s" state="M"/>
    <connection from=":J6_0" to="E6" fromLane="0" toLane="0" dir="s" state="M"/>
    <connection from=":J7_0" to="E7" fromLane="0" toLane="0" dir="l" state="M"/>

</net>
