<?xml version="1.0" encoding="UTF-8"?>

<!-- generated on 2026-02-12T05:39:15.990021+01:00 by Eclipse SUMO sumo v1_26_0+0160-8f2424ad75a
This data file and the accompanying materials
are made available under the terms of the Eclipse Public License v2.0
which accompanies this distribution, and is available at
http://www.eclipse.org/legal/epl-v20.html
This file may also be made available under the following Secondary
Licenses when the conditions for such availability set forth in the Eclipse
Public License 2.0 are satisfied: GNU General Public License, version 2
or later which is available at
https://www.gnu.org/licenses/old-licenses/gpl-2.0-standalone.html
SPDX-License-Identifier: EPL-2.0 OR GPL-2.0-or-later
<sumoConfiguration xmlns:xsi="http://www.w3.org/2001/XMLSchema-instance" xsi:noNamespaceSchemaLocation="http://sumo.dlr.de/xsd/sumoConfiguration.xsd">

    <input>
        <net-file value="motorway.net.xml"/>
        <route-files value="input_routes.rou.xml"/>
    </input>

    <output>
        <write-license value="true"/>
        <battery-output value="battery.xml"/>
        <tripinfo-output value="tripinfos.xml"/>
    </output>

    <processing>
        <default.speeddev value="0"/>
    </processing>

    <report>
        <xml-validation value="never"/>
        <duration-log.disable value="true"/>
        <no-step-log value="true"/>
    </report>

    <emissions>
        <device.emissions.probability value="1.0"/>
    </emissions>

    <battery>
        <device.battery.probability value="1.0"/>
    </battery>

    <mesoscopic>
        <mesosim value="true"/>
    </mesoscopic>

</sumoConfiguration>
-->

<battery-export xmlns:xsi="http://www.w3.org/2001/XMLSchema-instance" xsi:noNamespaceSchemaLocation="http://sumo.dlr.de/xsd/battery_file.xsd">
    <timestep time="0.00">
        <vehicle id="flow.0" energyConsumed="0.00" totalEnergyConsumed="0.00" totalEnergyRegenerated="0.00" actualBatteryCapacity="17500.00" maximumBatteryCapacity="35000.00" chargingStationId="NULL" energyCharged="0.00" energyChargedInTransit="0.00" energyChargedStopped="0.00" speed="40.32" acceleration="0.00" x="-6000.00" y="-1.60" edge="beg" posOnLane="0.00" timeStopped="0"/>
    </timestep>
    <timestep time="1.00">
        <vehicle id="flow.0" energyConsumed="0.00" totalEnergyConsumed="0.00" totalEnergyRegenerated="0.00" actualBatteryCapacity="17500.00" maximumBatteryCapacity="35000.00" chargingStationId="NULL" energyCharged="0.00" energyChargedInTransit="0.00" energyChargedStopped="0.00" speed="40.32" acceleration="0.00" x="-6000.00" y="-1.60" edge="beg" posOnLane="0.00" timeStopped="0"/>
        <vehicle id="flow.1" energyConsumed="0.00" totalEnergyConsumed="0.00" totalEnergyRegenerated="0.00" actualBatteryCapacity="17500.00" maximumBatteryCapacity="35000.00" chargingStationId="NULL" energyCharged="0.00" energyChargedInTransit="0.00" energyChargedStopped="0.00" speed="31.55" acceleration="0.00" x="-6000.00" y="-1.60" edge="beg" posOnLane="0.00" timeStopped="0"/>
    </timestep>
    <timestep time="2.00">
        <vehicle id="flow.0" energyConsumed="0.00" totalEnergyConsumed="0.00" totalEnergyRegenerated="0.00" actualBatteryCapacity="17500.00" maximumBatteryCapacity="35000.00" chargingStationId="NULL" energyCharged="0.00" energyChargedInTransit="0.00" energyChargedStopped="0.00" speed="40.32" acceleration="0.00" x="-6000.00" y="-1.60" edge="beg" posOnLane="0.00" timeStopped="0"/>
        <vehicle id="flow.1" energyConsumed="0.00" totalEnergyConsumed="0.00" totalEnergyRegenerated="0.00" actualBatteryCapacity="17500.00" maximumBatteryCapacity="35000.00" chargingStationId="NULL" energyCharged="0.00" energyChargedInTransit="0.00" energyChargedStopped="0.00" speed="31.55" acceleration="0.00" x="-6000.00" y="-1.60" edge="beg" posOnLane="0.00" timeStopped="0"/>
        <vehicle id="flow.2" energyConsumed="0.00" totalEnergyConsumed="0.00" totalEnergyRegenerated="0.00" actualBatteryCapacity="17500.00" maximumBatteryCapacity="35000.00" chargingStationId="NULL" energyCharged="0.00" energyChargedInTransit="0.00" energyChargedStopped="0.00" speed="36.75" acceleration="0.00" x="-6000.00" y="-1.60" edge="beg" posOnLane="0.00" timeStopped="0"/>
    </timestep>
    <timestep time="3.00">
        <vehicle id="flow.0" energyConsumed="29.38" totalEnergyConsumed="29.38" totalEnergyRegenerated="0.00" actualBatteryCapacity="17470.62" maximumBatteryCapacity="35000.00" chargingStationId="NULL" energyCharged="0.00" energyChargedInTransit="0.00" energyChargedStopped="0.00" speed="40.32" acceleration="0.00" x="-5903.35" y="-1.60" edge="beg" posOnLane="96.65" timeStopped="0"/>
        <vehicle id="flow.1" energyConsumed="0.00" totalEnergyConsumed="0.00" totalEnergyRegenerated="0.00" actualBatteryCapacity="17500.00" maximumBatteryCapacity="35000.00" chargingStationId="NULL" energyCharged="0.00" energyChargedInTransit="0.00" energyChargedStopped="0.00" speed="31.55" acceleration="0.00" x="-6000.00" y="-1.60" edge="beg" posOnLane="0.00" timeStopped="0"/>
        <vehicle id="flow.2" energyConsumed="0.00" totalEnergyConsumed="0.00" totalEnergyRegenerated="0.00" actualBatteryCapacity="17500.00" maximumBatteryCapacity="35000.00" chargingStationId="NULL" energyCharged="0.00" energyChargedInTransit="0.00" energyChargedStopped="0.00" speed="36.75" acceleration="0.00" x="-6000.00" y="-1.60" edge="beg" posOnLane="0.00" timeStopped="0"/>
        <vehicle id="flow.3" energyConsumed="0.00" totalEnergyConsumed="0.00" totalEnergyRegenerated="0.00" actualBatteryCapacity="17500.00" maximumBatteryCapacity="35000.00" chargingStationId="NULL" energyCharged="0.00" energyChargedInTransit="0.00" energyChargedStopped="0.00" speed="41.67" acceleration="0.00" x="-6000.00" y="-1.60" edge="beg" posOnLane="0.00" timeStopped="0"/>
    </timestep>
    <timestep time="4.00">
        <vehicle id="flow.0" energyConsumed="29.38" totalEnergyConsumed="29.38" totalEnergyRegenerated="0.00" actualBatteryCapacity="17470.62" maximumBatteryCapacity="35000.00" chargingStationId="NULL" energyCharged="0.00" energyChargedInTransit="0.00" energyChargedStopped="0.00" speed="40.32" acceleration="0.00" x="-5903.35" y="-1.60" edge="beg" posOnLane="96.65" timeStopped="0"/>
        <vehicle id="flow.1" energyConsumed="0.00" totalEnergyConsumed="0.00" totalEnergyRegenerated="0.00" actualBatteryCapacity="17500.00" maximumBatteryCapacity="35000.00" chargingStationId="NULL" energyCharged="0.00" energyChargedInTransit="0.00" energyChargedStopped="0.00" speed="31.55" acceleration="0.00" x="-6000.00" y="-1.60" edge="beg" posOnLane="0.00" timeStopped="0"/>
        <vehicle id="flow.2" energyConsumed="0.00" totalEnergyConsumed="0.00" totalEnergyRegenerated="0.00" actualBatteryCapacity="17500.00" maximumBatteryCapacity="35000.00" chargingStationId="NULL" energyCharged="0.00" energyChargedInTransit="0.00" energyChargedStopped="0.00" speed="36.75" acceleration="0.00" x="-6000.00" y="-1.60" edge="beg" posOnLane="0.00" timeStopped="0"/>
        <vehicle id="flow.3" energyConsumed="0.00" totalEnergyConsumed="0.00" totalEnergyRegenerated="0.00" actualBatteryCapacity="17500.00" maximumBatteryCapacity="35000.00" chargingStationId="NULL" energyCharged="0.00" energyChargedInTransit="0.00" energyChargedStopped="0.00" speed="41.67" acceleration="0.00" x="-6000.00" y="-1.60" edge="beg" posOnLane="0.00" timeStopped="0"/>
        <vehicle id="flow.4" energyConsumed="0.00" totalEnergyConsumed="0.00" totalEnergyRegenerated="0.00" actualBatteryCapacity="17500.00" maximumBatteryCapacity="35000.00" chargingStationId="NULL" energyCharged="0.00" energyChargedInTransit="0.00" energyChargedStopped="0.00" speed="38.18" acceleration="0.00" x="-6000.00" y="-1.60" edge="beg" posOnLane="0.00" timeStopped="0"/>
    </timestep>
    <timestep time="5.00">
        <vehicle id="flow.0" energyConsumed="29.38" totalEnergyConsumed="58.76" totalEnergyRegenerated="0.00" actualBatteryCapacity="17441.24" maximumBatteryCapacity="35000.00" chargingStationId="NULL" energyCharged="0.00" energyChargedInTransit="0.00" energyChargedStopped="0.00" speed="40.32" acceleration="0.00" x="-5806.71" y="-1.60" edge="beg" posOnLane="193.29" timeStopped="0"/>
        <vehicle id="flow.1" energyConsumed="19.94" totalEnergyConsumed="19.94" totalEnergyRegenerated="0.00" actualBatteryCapacity="17480.06" maximumBatteryCapacity="35000.00" chargingStationId="NULL" energyCharged="0.00" energyChargedInTransit="0.00" energyChargedStopped="0.00" speed="31.55" acceleration="0.00" x="-5903.35" y="-1.60" edge="beg" posOnLane="96.65" timeStopped="0"/>
        <vehicle id="flow.2" energyConsumed="25.26" totalEnergyConsumed="25.26" totalEnergyRegenerated="0.00" actualBatteryCapacity="17474.74" maximumBatteryCapacity="35000.00" chargingStationId="NULL" energyCharged="0.00" energyChargedInTransit="0.00" energyChargedStopped="0.00" speed="32.92" acceleration="0.00" x="-5903.35" y="-1.60" edge="beg" posOnLane="96.65" timeStopped="0"/>
        <vehicle id="flow.3" energyConsumed="0.00" totalEnergyConsumed="0.00" totalEnergyRegenerated="0.00" actualBatteryCapacity="17500.00" maximumBatteryCapacity="35000.00" chargingStationId="NULL" energyCharged="0.00" energyChargedInTransit="0.00" energyChargedStopped="0.00" speed="41.67" acceleration="0.00" x="-6000.00" y="-1.60" edge="beg" posOnLane="0.00" timeStopped="0"/>
        <vehicle id="flow.4" energyConsumed="0.00" totalEnergyConsumed="0.00" totalEnergyRegenerated="0.00" actualBatteryCapacity="17500.00" maximumBatteryCapacity="35000.00" chargingStationId="NULL" energyCharged="0.00" energyChargedInTransit="0.00" energyChargedStopped="0.00" speed="38.18" acceleration="0.00" x="-6000.00" y="-1.60" edge="beg" posOnLane="0.00" timeStopped="0"/>
        <vehicle id="flow.5" energyConsumed="0.00" totalEnergyConsumed="0.00" totalEnergyRegenerated="0.00" actualBatteryCapacity="17500.00" maximumBatteryCapacity="35000.00" chargingStationId="NULL" energyCharged="0.00" energyChargedInTransit="0.00" energyChargedStopped="0.00" speed="23.83" acceleration="0.00" x="-6000.00" y="-1.60" edge="beg" posOnLane="0.00" timeStopped="0"/>
    </timestep>
    <timestep time="6.00">
        <vehicle id="flow.0" energyConsumed="29.38" totalEnergyConsumed="58.76" totalEnergyRegenerated="0.00" actualBatteryCapacity="17441.24" maximumBatteryCapacity="35000.00" chargingStationId="NULL" energyCharged="0.00" energyChargedInTransit="0.00" energyChargedStopped="0.00" speed="40.32" acceleration="0.00" x="-5806.71" y="-1.60" edge="beg" posOnLane="193.29" timeStopped="0"/>
        <vehicle id="flow.1" energyConsumed="19.94" totalEnergyConsumed="19.94" totalEnergyRegenerated="0.00" actualBatteryCapacity="17480.06" maximumBatteryCapacity="35000.00" chargingStationId="NULL" energyCharged="0.00" energyChargedInTransit="0.00" energyChargedStopped="0.00" speed="31.55" acceleration="0.00" x="-5903.35" y="-1.60" edge="beg" posOnLane="96.65" timeStopped="0"/>
        <vehicle id="flow.2" energyConsumed="25.26" totalEnergyConsumed="25.26" totalEnergyRegenerated="0.00" actualBatteryCapacity="17474.74" maximumBatteryCapacity="35000.00" chargingStationId="NULL" energyCharged="0.00" energyChargedInTransit="0.00" energyChargedStopped="0.00" speed="32.92" acceleration="0.00" x="-5903.35" y="-1.60" edge="beg" posOnLane="96.65" timeStopped="0"/>
        <vehicle id="flow.3" energyConsumed="31.05" totalEnergyConsumed="31.05" totalEnergyRegenerated="0.00" actualBatteryCapacity="17468.95" maximumBatteryCapacity="35000.00" chargingStationId="NULL" energyCharged="0.00" energyChargedInTransit="0.00" energyChargedStopped="0.00" speed="35.97" acceleration="0.00" x="-5903.35" y="-1.60" edge="beg" posOnLane="96.65" timeStopped="0"/>
        <vehicle id="flow.4" energyConsumed="0.00" totalEnergyConsumed="0.00" totalEnergyRegenerated="0.00" actualBatteryCapacity="17500.00" maximumBatteryCapacity="35000.00" chargingStationId="NULL" energyCharged="0.00" energyChargedInTransit="0.00" energyChargedStopped="0.00" speed="38.18" acceleration="0.00" x="-6000.00" y="-1.60" edge="beg" posOnLane="0.00" timeStopped="0"/>
        <vehicle id="flow.5" energyConsumed="0.00" totalEnergyConsumed="0.00" totalEnergyRegenerated="0.00" actualBatteryCapacity="17500.00" maximumBatteryCapacity="35000.00" chargingStationId="NULL" energyCharged="0.00" energyChargedInTransit="0.00" energyChargedStopped="0.00" speed="23.83" acceleration="0.00" x="-6000.00" y="-1.60" edge="beg" posOnLane="0.00" timeStopped="0"/>
        <vehicle id="flow.6" energyConsumed="0.00" totalEnergyConsumed="0.00" totalEnergyRegenerated="0.00" actualBatteryCapacity="17500.00" maximumBatteryCapacity="35000.00" chargingStationId="NULL" energyCharged="0.00" energyChargedInTransit="0.00" energyChargedStopped="0.00" speed="27.65" acceleration="0.00" x="-6000.00" y="-1.60" edge="beg" posOnLane="0.00" timeStopped="0"/>
    </timestep>
    <timestep time="7.00">
        <vehicle id="flow.0" energyConsumed="29.38" totalEnergyConsumed="58.76" totalEnergyRegenerated="0.00" actualBatteryCapacity="17441.24" maximumBatteryCapacity="35000.00" chargingStationId="NULL" energyCharged="0.00" energyChargedInTransit="0.00" energyChargedStopped="0.00" speed="40.32" acceleration="0.00" x="-5806.71" y="-1.60" edge="beg" posOnLane="193.29" timeStopped="0"/>
        <vehicle id="flow.1" energyConsumed="19.94" totalEnergyConsumed="19.94" totalEnergyRegenerated="0.00" actualBatteryCapacity="17480.06" maximumBatteryCapacity="35000.00" chargingStationId="NULL" energyCharged="0.00" energyChargedInTransit="0.00" energyChargedStopped="0.00" speed="31.55" acceleration="0.00" x="-5903.35" y="-1.60" edge="beg" posOnLane="96.65" timeStopped="0"/>
        <vehicle id="flow.2" energyConsumed="25.26" totalEnergyConsumed="25.26" totalEnergyRegenerated="0.00" actualBatteryCapacity="17474.74" maximumBatteryCapacity="35000.00" chargingStationId="NULL" energyCharged="0.00" energyChargedInTransit="0.00" energyChargedStopped="0.00" speed="32.92" acceleration="0.00" x="-5903.35" y="-1.60" edge="beg" posOnLane="96.65" timeStopped="0"/>
        <vehicle id="flow.3" energyConsumed="31.05" totalEnergyConsumed="31.05" totalEnergyRegenerated="0.00" actualBatteryCapacity="17468.95" maximumBatteryCapacity="35000.00" chargingStationId="NULL" energyCharged="0.00" energyChargedInTransit="0.00" energyChargedStopped="0.00" speed="35.97" acceleration="0.00" x="-5903.35" y="-1.60" edge="beg" posOnLane="96.65" timeStopped="0"/>
        <vehicle id="flow.4" energyConsumed="26.87" totalEnergyConsumed="26.87" totalEnergyRegenerated="0.00" actualBatteryCapacity="17473.13" maximumBatteryCapacity="35000.00" chargingStationId="NULL" energyCharged="0.00" energyChargedInTransit="0.00" energyChargedStopped="0.00" speed="38.18" acceleration="0.00" x="-5903.35" y="-1.60" edge="beg" posOnLane="96.65" timeStopped="0"/>
        <vehicle id="flow.5" energyConsumed="0.00" totalEnergyConsumed="0.00" totalEnergyRegenerated="0.00" actualBatteryCapacity="17500.00" maximumBatteryCapacity="35000.00" chargingStationId="NULL" energyCharged="0.00" energyChargedInTransit="0.00" energyChargedStopped="0.00" speed="23.83" acceleration="0.00" x="-6000.00" y="-1.60" edge="beg" posOnLane="0.00" timeStopped="0"/>
        <vehicle id="flow.6" energyConsumed="0.00" totalEnergyConsumed="0.00" totalEnergyRegenerated="0.00" actualBatteryCapacity="17500.00" maximumBatteryCapacity="35000.00" chargingStationId="NULL" energyCharged="0.00" energyChargedInTransit="0.00" energyChargedStopped="0.00" speed="27.65" acceleration="0.00" x="-6000.00" y="-1.60" edge="beg" posOnLane="0.00" timeStopped="0"/>
        <vehicle id="flow.7" energyConsumed="0.00" totalEnergyConsumed="0.00" totalEnergyRegenerated="0.00" actualBatteryCapacity="17500.00" maximumBatteryCapacity="35000.00" chargingStationId="NULL" energyCharged="0.00" energyChargedInTransit="0.00" energyChargedStopped="0.00" speed="27.79" acceleration="0.00" x="-6000.00" y="-1.60" edge="beg" posOnLane="0.00" timeStopped="0"/>
    </timestep>
    <timestep time="8.00">
        <vehicle id="flow.0" energyConsumed="29.38" totalEnergyConsumed="88.14" totalEnergyRegenerated="0.00" actualBatteryCapacity="17411.86" maximumBatteryCapacity="35000.00" chargingStationId="NULL" energyCharged="0.00" energyChargedInTransit="0.00" energyChargedStopped="0.00" speed="40.32" acceleration="0.00" x="-5710.06" y="-1.60" edge="beg" posOnLane="289.94" timeStopped="0"/>
        <vehicle id="flow.1" energyConsumed="19.94" totalEnergyConsumed="39.89" totalEnergyRegenerated="0.00" actualBatteryCapacity="17460.11" maximumBatteryCapacity="35000.00" chargingStationId="NULL" energyCharged="0.00" energyChargedInTransit="0.00" energyChargedStopped="0.00" speed="31.55" acceleration="0.00" x="-5806.71" y="-1.60" edge="beg" posOnLane="193.29" timeStopped="0"/>
        <vehicle id="flow.2" energyConsumed="21.26" totalEnergyConsumed="46.52" totalEnergyRegenerated="0.00" actualBatteryCapacity="17453.48" maximumBatteryCapacity="35000.00" chargingStationId="NULL" energyCharged="0.00" energyChargedInTransit="0.00" energyChargedStopped="0.00" speed="31.55" acceleration="0.00" x="-5806.71" y="-1.60" edge="beg" posOnLane="193.29" timeStopped="0"/>
        <vehicle id="flow.3" energyConsumed="31.05" totalEnergyConsumed="31.05" totalEnergyRegenerated="0.00" actualBatteryCapacity="17468.95" maximumBatteryCapacity="35000.00" chargingStationId="NULL" energyCharged="0.00" energyChargedInTransit="0.00" energyChargedStopped="0.00" speed="35.97" acceleration="0.00" x="-5903.35" y="-1.60" edge="beg" posOnLane="96.65" timeStopped="0"/>
        <vehicle id="flow.4" energyConsumed="26.87" totalEnergyConsumed="26.87" totalEnergyRegenerated="0.00" actualBatteryCapacity="17473.13" maximumBatteryCapacity="35000.00" chargingStationId="NULL" energyCharged="0.00" energyChargedInTransit="0.00" energyChargedStopped="0.00" speed="38.18" acceleration="0.00" x="-5903.35" y="-1.60" edge="beg" posOnLane="96.65" timeStopped="0"/>
        <vehicle id="flow.5" energyConsumed="0.00" totalEnergyConsumed="0.00" totalEnergyRegenerated="0.00" actualBatteryCapacity="17500.00" maximumBatteryCapacity="35000.00" chargingStationId="NULL" energyCharged="0.00" energyChargedInTransit="0.00" energyChargedStopped="0.00" speed="23.83" acceleration="0.00" x="-6000.00" y="-1.60" edge="beg" posOnLane="0.00" timeStopped="0"/>
        <vehicle id="flow.6" energyConsumed="0.00" totalEnergyConsumed="0.00" totalEnergyRegenerated="0.00" actualBatteryCapacity="17500.00" maximumBatteryCapacity="35000.00" chargingStationId="NULL" energyCharged="0.00" energyChargedInTransit="0.00" energyChargedStopped="0.00" speed="27.65" acceleration="0.00" x="-6000.00" y="-1.60" edge="beg" posOnLane="0.00" timeStopped="0"/>
        <vehicle id="flow.7" energyConsumed="0.00" totalEnergyConsumed="0.00" totalEnergyRegenerated="0.00" actualBatteryCapacity="17500.00" maximumBatteryCapacity="35000.00" chargingStationId="NULL" energyCharged="0.00" energyChargedInTransit="0.00" energyChargedStopped="0.00" speed="27.79" acceleration="0.00" x="-6000.00" y="-1.60" edge="beg" posOnLane="0.00" timeStopped="0"/>
        <vehicle id="flow.8" energyConsumed="0.00" totalEnergyConsumed="0.00" totalEnergyRegenerated="0.00" actualBatteryCapacity="17500.00" maximumBatteryCapacity="35000.00" chargingStationId="NULL" energyCharged="0.00" energyChargedInTransit="0.00" energyChargedStopped="0.00" speed="31.53" acceleration="0.00" x="-6000.00" y="-1.60" edge="beg" posOnLane="0.00" timeStopped="0"/>
    </timestep>
    <timestep time="9.00">
        <vehicle id="flow.0" energyConsumed="29.38" totalEnergyConsumed="88.14" totalEnergyRegenerated="0.00" actualBatteryCapacity="17411.86" maximumBatteryCapacity="35000.00" chargingStationId="NULL" energyCharged="0.00" energyChargedInTransit="0.00" energyChargedStopped="0.00" speed="40.32" acceleration="0.00" x="-5710.06" y="-1.60" edge="beg" posOnLane="289.94" timeStopped="0"/>
        <vehicle id="flow.1" energyConsumed="19.94" totalEnergyConsumed="39.89" totalEnergyRegenerated="0.00" actualBatteryCapacity="17460.11" maximumBatteryCapacity="35000.00" chargingStationId="NULL" energyCharged="0.00" energyChargedInTransit="0.00" energyChargedStopped="0.00" speed="31.55" acceleration="0.00" x="-5806.71" y="-1.60" edge="beg" posOnLane="193.29" timeStopped="0"/>
        <vehicle id="flow.2" energyConsumed="21.26" totalEnergyConsumed="46.52" totalEnergyRegenerated="0.00" actualBatteryCapacity="17453.48" maximumBatteryCapacity="35000.00" chargingStationId="NULL" energyCharged="0.00" energyChargedInTransit="0.00" energyChargedStopped="0.00" speed="31.55" acceleration="0.00" x="-5806.71" y="-1.60" edge="beg" posOnLane="193.29" timeStopped="0"/>
        <vehicle id="flow.3" energyConsumed="24.41" totalEnergyConsumed="55.45" totalEnergyRegenerated="0.00" actualBatteryCapacity="17444.55" maximumBatteryCapacity="35000.00" chargingStationId="NULL" energyCharged="0.00" energyChargedInTransit="0.00" energyChargedStopped="0.00" speed="31.55" acceleration="0.00" x="-5806.71" y="-1.60" edge="beg" posOnLane="193.29" timeStopped="0"/>
        <vehicle id="flow.4" energyConsumed="26.87" totalEnergyConsumed="26.87" totalEnergyRegenerated="0.00" actualBatteryCapacity="17473.13" maximumBatteryCapacity="35000.00" chargingStationId="NULL" energyCharged="0.00" energyChargedInTransit="0.00" energyChargedStopped="0.00" speed="38.18" acceleration="0.00" x="-5903.35" y="-1.60" edge="beg" posOnLane="96.65" timeStopped="0"/>
        <vehicle id="flow.5" energyConsumed="0.00" totalEnergyConsumed="0.00" totalEnergyRegenerated="0.00" actualBatteryCapacity="17500.00" maximumBatteryCapacity="35000.00" chargingStationId="NULL" energyCharged="0.00" energyChargedInTransit="0.00" energyChargedStopped="0.00" speed="23.83" acceleration="0.00" x="-6000.00" y="-1.60" edge="beg" posOnLane="0.00" timeStopped="0"/>
        <vehicle id="flow.6" energyConsumed="0.00" totalEnergyConsumed="0.00" totalEnergyRegenerated="0.00" actualBatteryCapacity="17500.00" maximumBatteryCapacity="35000.00" chargingStationId="NULL" energyCharged="0.00" energyChargedInTransit="0.00" energyChargedStopped="0.00" speed="27.65" acceleration="0.00" x="-6000.00" y="-1.60" edge="beg" posOnLane="0.00" timeStopped="0"/>
        <vehicle id="flow.7" energyConsumed="0.00" totalEnergyConsumed="0.00" totalEnergyRegenerated="0.00" actualBatteryCapacity="17500.00" maximumBatteryCapacity="35000.00" chargingStationId="NULL" energyCharged="0.00" energyChargedInTransit="0.00" energyChargedStopped="0.00" speed="27.79" acceleration="0.00" x="-6000.00" y="-1.60" edge="beg" posOnLane="0.00" timeStopped="0"/>
        <vehicle id="flow.8" energyConsumed="0.00" totalEnergyConsumed="0.00" totalEnergyRegenerated="0.00" actualBatteryCapacity="17500.00" maximumBatteryCapacity="35000.00" chargingStationId="NULL" energyCharged="0.00" energyChargedInTransit="0.00" energyChargedStopped="0.00" speed="31.53" acceleration="0.00" x="-6000.00" y="-1.60" edge="beg" posOnLane="0.00" timeStopped="0"/>
        <vehicle id="flow.9" energyConsumed="0.00" totalEnergyConsumed="0.00" totalEnergyRegenerated="0.00" actualBatteryCapacity="17500.00" maximumBatteryCapacity="35000.00" chargingStationId="NULL" energyCharged="0.00" energyChargedInTransit="0.00" energyChargedStopped="0.00" speed="25.70" acceleration="0.00" x="-6000.00" y="-1.60" edge="beg" posOnLane="0.00" timeStopped="0"/>
    </timestep>
    <timestep time="10.00">
        <vehicle id="flow.0" energyConsumed="29.38" totalEnergyConsumed="117.52" totalEnergyRegenerated="0.00" actualBatteryCapacity="17382.48" maximumBatteryCapacity="35000.00" chargingStationId="NULL" energyCharged="0.00" energyChargedInTransit="0.00" energyChargedStopped="0.00" speed="40.32" acceleration="0.00" x="-5613.42" y="-1.60" edge="beg" posOnLane="386.58" timeStopped="0"/>
        <vehicle id="flow.1" energyConsumed="19.94" totalEnergyConsumed="39.89" totalEnergyRegenerated="0.00" actualBatteryCapacity="17460.11" maximumBatteryCapacity="35000.00" chargingStationId="NULL" energyCharged="0.00" energyChargedInTransit="0.00" energyChargedStopped="0.00" speed="31.55" acceleration="0.00" x="-5806.71" y="-1.60" edge="beg" posOnLane="193.29" timeStopped="0"/>
        <vehicle id="flow.2" energyConsumed="21.26" totalEnergyConsumed="46.52" totalEnergyRegenerated="0.00" actualBatteryCapacity="17453.48" maximumBatteryCapacity="35000.00" chargingStationId="NULL" energyCharged="0.00" energyChargedInTransit="0.00" energyChargedStopped="0.00" speed="31.55" acceleration="0.00" x="-5806.71" y="-1.60" edge="beg" posOnLane="193.29" timeStopped="0"/>
        <vehicle id="flow.3" energyConsumed="24.41" totalEnergyConsumed="55.45" totalEnergyRegenerated="0.00" actualBatteryCapacity="17444.55" maximumBatteryCapacity="35000.00" chargingStationId="NULL" energyCharged="0.00" energyChargedInTransit="0.00" energyChargedStopped="0.00" speed="31.55" acceleration="0.00" x="-5806.71" y="-1.60" edge="beg" posOnLane="193.29" timeStopped="0"/>
        <vehicle id="flow.4" energyConsumed="26.87" totalEnergyConsumed="53.74" totalEnergyRegenerated="0.00" actualBatteryCapacity="17446.26" maximumBatteryCapacity="35000.00" chargingStationId="NULL" energyCharged="0.00" energyChargedInTransit="0.00" energyChargedStopped="0.00" speed="38.18" acceleration="0.00" x="-5806.71" y="-1.60" edge="beg" posOnLane="193.29" timeStopped="0"/>
        <vehicle id="flow.5" energyConsumed="13.55" totalEnergyConsumed="13.55" totalEnergyRegenerated="0.00" actualBatteryCapacity="17486.45" maximumBatteryCapacity="35000.00" chargingStationId="NULL" energyCharged="0.00" energyChargedInTransit="0.00" energyChargedStopped="0.00" speed="23.83" acceleration="0.00" x="-5903.35" y="-1.60" edge="beg" posOnLane="96.65" timeStopped="0"/>
        <vehicle id="flow.6" energyConsumed="16.49" totalEnergyConsumed="16.49" totalEnergyRegenerated="0.00" actualBatteryCapacity="17483.51" maximumBatteryCapacity="35000.00" chargingStationId="NULL" energyCharged="0.00" energyChargedInTransit="0.00" energyChargedStopped="0.00" speed="23.83" acceleration="0.00" x="-5903.35" y="-1.60" edge="beg" posOnLane="96.65" timeStopped="0"/>
        <vehicle id="flow.7" energyConsumed="0.00" totalEnergyConsumed="0.00" totalEnergyRegenerated="0.00" actualBatteryCapacity="17500.00" maximumBatteryCapacity="35000.00" chargingStationId="NULL" energyCharged="0.00" energyChargedInTransit="0.00" energyChargedStopped="0.00" speed="27.79" acceleration="0.00" x="-6000.00" y="-1.60" edge="beg" posOnLane="0.00" timeStopped="0"/>
        <vehicle id="flow.8" energyConsumed="0.00" totalEnergyConsumed="0.00" totalEnergyRegenerated="0.00" actualBatteryCapacity="17500.00" maximumBatteryCapacity="35000.00" chargingStationId="NULL" energyCharged="0.00" energyChargedInTransit="0.00" energyChargedStopped="0.00" speed="31.53" acceleration="0.00" x="-6000.00" y="-1.60" edge="beg" posOnLane="0.00" timeStopped="0"/>
        <vehicle id="flow.9" energyConsumed="0.00" totalEnergyConsumed="0.00" totalEnergyRegenerated="0.00" actualBatteryCapacity="17500.00" maximumBatteryCapacity="35000.00" chargingStationId="NULL" energyCharged="0.00" energyChargedInTransit="0.00" energyChargedStopped="0.00" speed="25.70" acceleration="0.00" x="-6000.00" y="-1.60" edge="beg" posOnLane="0.00" timeStopped="0"/>
    </timestep>
    <timestep time="11.00">
        <vehicle id="flow.0" energyConsumed="29.38" totalEnergyConsumed="117.52" totalEnergyRegenerated="0.00" actualBatteryCapacity="17382.48" maximumBatteryCapacity="35000.00" chargingStationId="NULL" energyCharged="0.00" energyChargedInTransit="0.00" energyChargedStopped="0.00" speed="40.32" acceleration="0.00" x="-5613.42" y="-1.60" edge="beg" posOnLane="386.58" timeStopped="0"/>
        <vehicle id="flow.1" energyConsumed="19.94" totalEnergyConsumed="59.83" totalEnergyRegenerated="0.00" actualBatteryCapacity="17440.17" maximumBatteryCapacity="35000.00" chargingStationId="NULL" energyCharged="0.00" energyChargedInTransit="0.00" energyChargedStopped="0.00" speed="31.55" acceleration="0.00" x="-5710.06" y="-1.60" edge="beg" posOnLane="289.94" timeStopped="0"/>
        <vehicle id="flow.2" energyConsumed="19.94" totalEnergyConsumed="66.46" totalEnergyRegenerated="0.00" actualBatteryCapacity="17433.54" maximumBatteryCapacity="35000.00" chargingStationId="NULL" energyCharged="0.00" energyChargedInTransit="0.00" energyChargedStopped="0.00" speed="31.55" acceleration="0.00" x="-5710.06" y="-1.60" edge="beg" posOnLane="289.94" timeStopped="0"/>
        <vehicle id="flow.3" energyConsumed="24.41" totalEnergyConsumed="55.45" totalEnergyRegenerated="0.00" actualBatteryCapacity="17444.55" maximumBatteryCapacity="35000.00" chargingStationId="NULL" energyCharged="0.00" energyChargedInTransit="0.00" energyChargedStopped="0.00" speed="31.55" acceleration="0.00" x="-5806.71" y="-1.60" edge="beg" posOnLane="193.29" timeStopped="0"/>
        <vehicle id="flow.4" energyConsumed="26.87" totalEnergyConsumed="53.74" totalEnergyRegenerated="0.00" actualBatteryCapacity="17446.26" maximumBatteryCapacity="35000.00" chargingStationId="NULL" energyCharged="0.00" energyChargedInTransit="0.00" energyChargedStopped="0.00" speed="38.18" acceleration="0.00" x="-5806.71" y="-1.60" edge="beg" posOnLane="193.29" timeStopped="0"/>
        <vehicle id="flow.5" energyConsumed="13.55" totalEnergyConsumed="13.55" totalEnergyRegenerated="0.00" actualBatteryCapacity="17486.45" maximumBatteryCapacity="35000.00" chargingStationId="NULL" energyCharged="0.00" energyChargedInTransit="0.00" energyChargedStopped="0.00" speed="23.83" acceleration="0.00" x="-5903.35" y="-1.60" edge="beg" posOnLane="96.65" timeStopped="0"/>
        <vehicle id="flow.6" energyConsumed="16.49" totalEnergyConsumed="16.49" totalEnergyRegenerated="0.00" actualBatteryCapacity="17483.51" maximumBatteryCapacity="35000.00" chargingStationId="NULL" energyCharged="0.00" energyChargedInTransit="0.00" energyChargedStopped="0.00" speed="23.83" acceleration="0.00" x="-5903.35" y="-1.60" edge="beg" posOnLane="96.65" timeStopped="0"/>